<?xml version="1.0" encoding="utf-8"?>
<!-- generated on 2023-03-06 01:32:42 by Eclipse SUMO netedit Version 1.15.0
-->
<routes xmlns:xsi="http://www.w3.org/2001/XMLSchema-instance" xsi:noNamespaceSchemaLocation="http://sumo.dlr.de/xsd/routes_file.xsd">
 <!-- VTypes -->
 <vType id="BUS" minGap="1.25" sigma="0.25" speedDev="0.0" vClass="bus"/>
 <vType id="CAR" minGap="1.25" sigma="0.25" speedDev="0.0" vClass="passenger"/>
 <vType id="MOTORCYCLE" minGap="0.25" sigma="0.25" speedDev="0.0" vClass="motorcycle"/>
 <vType id="TAXI" minGap="1.25" sigma="0.25" speedDev="0.0" vClass="taxi"/>
 <vType id="TRAILER" minGap="1.50" sigma="0.25" speedDev="0.0" vClass="trailer"/>
 <vType id="TRUCK" minGap="1.50" sigma="0.25" speedDev="0.0" vClass="truck"/>
 <!-- Routes -->
 <route edges="933952934#0 4601641#0" id="aurora_e_aurora_w"/>
 <route edges="933952934#0 26296778#0 26296778#2.16 26296778#2.51" id="aurora_e_katip_n"/>
 <route edges="933952934#0 703023054 780157088 780157088.15 780157088.34" id="aurora_e_katip_s"/>
 <route edges="591107291#0 591107291#1 609205085 1078018160 430789454#0 1078018158" id="aurora_w_aurora_e"/>
 <route edges="591107291#0 591107291#1 26296781#0 26296781#1 780157088 780157088.15 780157088.34" id="aurora_w_katip_s"/>
 <route edges="1076383725 1076383725.44 1076383725.80 1078018160 430789454#0 1078018158" id="katip_n_aurora_e"/>
 <route edges="1076383725 1076383725.44 1076383725.80 4601641#0" id="katip_n_aurora_w"/>
 <route edges="1076383725 E1 26296778#2.51" id="katip_n_u_turn"/>
 <route edges="780157087#0 780157087#0.14 780157087#0.33 780157087#2 1078018164 1078018160 430789454#0 1078018158" id="katip_s_aurora_e"/>
 <route edges="780157087#0 780157087#0.14 780157087#0.33 780157087#2 1078018163 4601641#0" id="katip_s_aurora_w"/>
 <route edges="780157087#0 E3 780157088.34" id="katip_s_u_turn"/>
 <!-- Vehicles, persons and containers (sorted by depart) -->
 <flow begin="0.0" end="3600.0" id="f_0_0_CAR" route="katip_s_aurora_w" type="CAR" vehsPerHour="354.0"/>
 <flow begin="0.0" end="3600.0" id="f_0_0_TAXI" route="katip_s_aurora_w" type="TAXI" vehsPerHour="25.0"/>
 <flow begin="0.0" end="3600.0" id="f_0_0_BUS" route="katip_s_aurora_w" type="BUS" vehsPerHour="9.0"/>
 <flow begin="0.0" end="3600.0" id="f_0_0_TRUCK" route="katip_s_aurora_w" type="TRUCK" vehsPerHour="5.0"/>
 <flow begin="0.0" end="3600.0" id="f_0_0_MOTORCYCLE" route="katip_s_aurora_w" type="MOTORCYCLE" vehsPerHour="184.0"/>
 <flow begin="0.0" end="3600.0" id="f_1_0_CAR" route="katip_s_u_turn" type="CAR" vehsPerHour="445.0"/>
 <flow begin="0.0" end="3600.0" id="f_1_0_TAXI" route="katip_s_u_turn" type="TAXI" vehsPerHour="2.0"/>
 <flow begin="0.0" end="3600.0" id="f_1_0_BUS" route="katip_s_u_turn" type="BUS" vehsPerHour="1.0"/>
 <flow begin="0.0" end="3600.0" id="f_1_0_TRUCK" route="katip_s_u_turn" type="TRUCK" vehsPerHour="6.0"/>
 <flow begin="0.0" end="3600.0" id="f_1_0_MOTORCYCLE" route="katip_s_u_turn" type="MOTORCYCLE" vehsPerHour="56.0"/>
 <flow begin="0.0" end="3600.0" id="f_10_0_CAR" route="katip_n_u_turn" type="CAR" vehsPerHour="66.0"/>
 <flow begin="0.0" end="3600.0" id="f_10_0_TAXI" route="katip_n_u_turn" type="TAXI" vehsPerHour="2.0"/>
 <flow begin="0.0" end="3600.0" id="f_10_0_TRUCK" route="katip_n_u_turn" type="TRUCK" vehsPerHour="2.0"/>
 <flow begin="0.0" end="3600.0" id="f_10_0_MOTORCYCLE" route="katip_n_u_turn" type="MOTORCYCLE" vehsPerHour="38.0"/>
 <flow begin="0.0" end="3600.0" id="f_2_0_CAR" route="katip_s_aurora_e" type="CAR" vehsPerHour="60.0"/>
 <flow begin="0.0" end="3600.0" id="f_2_0_TAXI" route="katip_s_aurora_e" type="TAXI" vehsPerHour="2.0"/>
 <flow begin="0.0" end="3600.0" id="f_2_0_BUS" route="katip_s_aurora_e" type="BUS" vehsPerHour="1.0"/>
 <flow begin="0.0" end="3600.0" id="f_2_0_TRUCK" route="katip_s_aurora_e" type="TRUCK" vehsPerHour="6.0"/>
 <flow begin="0.0" end="3600.0" id="f_2_0_MOTORCYCLE" route="katip_s_aurora_e" type="MOTORCYCLE" vehsPerHour="56.0"/>
 <flow begin="0.0" end="3600.0" id="f_3_0_CAR" route="aurora_e_katip_n" type="CAR" vehsPerHour="44.0"/>
 <flow begin="0.0" end="3600.0" id="f_3_0_TRUCK" route="aurora_e_katip_n" type="TRUCK" vehsPerHour="32.0"/>
 <flow begin="0.0" end="3600.0" id="f_3_0_TRAILER" route="aurora_e_katip_n" type="TRAILER" vehsPerHour="2.0"/>
 <flow begin="0.0" end="3600.0" id="f_3_0_MOTORCYCLE" route="aurora_e_katip_n" type="MOTORCYCLE" vehsPerHour="46.0"/>
 <flow begin="0.0" end="3600.0" id="f_4_0_CAR" route="aurora_e_aurora_w" type="CAR" vehsPerHour="1530.0"/>
 <flow begin="0.0" end="3600.0" id="f_4_0_TAXI" route="aurora_e_aurora_w" type="TAXI" vehsPerHour="104.0"/>
 <flow begin="0.0" end="3600.0" id="f_4_0_BUS" route="aurora_e_aurora_w" type="BUS" vehsPerHour="10.0"/>
 <flow begin="0.0" end="3600.0" id="f_4_0_TRUCK" route="aurora_e_aurora_w" type="TRUCK" vehsPerHour="23.0"/>
 <flow begin="0.0" end="3600.0" id="f_4_0_MOTORCYCLE" route="aurora_e_aurora_w" type="MOTORCYCLE" vehsPerHour="2104.0"/>
 <flow begin="0.0" end="3600.0" id="f_5_0_CAR" route="katip_n_aurora_w" type="CAR" vehsPerHour="64.0"/>
 <flow begin="0.0" end="3600.0" id="f_5_0_TAXI" route="katip_n_aurora_w" type="TAXI" vehsPerHour="42.0"/>
 <flow begin="0.0" end="3600.0" id="f_5_0_TRUCK" route="katip_n_aurora_w" type="TRUCK" vehsPerHour="3.0"/>
 <flow begin="0.0" end="3600.0" id="f_5_0_MOTORCYCLE" route="katip_n_aurora_w" type="MOTORCYCLE" vehsPerHour="121.0"/>
 <flow begin="0.0" end="3600.0" id="f_6_0_CAR" route="katip_n_aurora_e" type="CAR" vehsPerHour="554.0"/>
 <flow begin="0.0" end="3600.0" id="f_6_0_TAXI" route="katip_n_aurora_e" type="TAXI" vehsPerHour="24.0"/>
 <flow begin="0.0" end="3600.0" id="f_6_0_BUS" route="katip_n_aurora_e" type="BUS" vehsPerHour="1.0"/>
 <flow begin="0.0" end="3600.0" id="f_6_0_TRUCK" route="katip_n_aurora_e" type="TRUCK" vehsPerHour="88.0"/>
 <flow begin="0.0" end="3600.0" id="f_6_0_TRAILER" route="katip_n_aurora_e" type="TRAILER" vehsPerHour="6.0"/>
 <flow begin="0.0" end="3600.0" id="f_6_0_MOTORCYCLE" route="katip_n_aurora_e" type="MOTORCYCLE" vehsPerHour="986.0"/>
 <flow begin="0.0" end="3600.0" id="f_7_0_CAR" route="aurora_w_aurora_e" type="CAR" vehsPerHour="401.0"/>
 <flow begin="0.0" end="3600.0" id="f_7_0_TAXI" route="aurora_w_aurora_e" type="TAXI" vehsPerHour="45.0"/>
 <flow begin="0.0" end="3600.0" id="f_7_0_BUS" route="aurora_w_aurora_e" type="BUS" vehsPerHour="6.0"/>
 <flow begin="0.0" end="3600.0" id="f_7_0_TRUCK" route="aurora_w_aurora_e" type="TRUCK" vehsPerHour="18.0"/>
 <flow begin="0.0" end="3600.0" id="f_7_0_MOTORCYCLE" route="aurora_w_aurora_e" type="MOTORCYCLE" vehsPerHour="581.0"/>
 <flow begin="0.0" end="3600.0" id="f_8_0_CAR" route="aurora_w_katip_s" type="CAR" vehsPerHour="121.0"/>
 <flow begin="0.0" end="3600.0" id="f_8_0_TAXI" route="aurora_w_katip_s" type="TAXI" vehsPerHour="13.0"/>
 <flow begin="0.0" end="3600.0" id="f_8_0_MOTORCYCLE" route="aurora_w_katip_s" type="MOTORCYCLE" vehsPerHour="109.0"/>
 <flow begin="0.0" end="3600.0" id="f_9_0_CAR" route="aurora_e_katip_s" type="CAR" vehsPerHour="123.0"/>
 <flow begin="0.0" end="3600.0" id="f_9_0_TAXI" route="aurora_e_katip_s" type="TAXI" vehsPerHour="13.0"/>
 <flow begin="0.0" end="3600.0" id="f_9_0_BUS" route="aurora_e_katip_s" type="BUS" vehsPerHour="1.0"/>
 <flow begin="0.0" end="3600.0" id="f_9_0_TRUCK" route="aurora_e_katip_s" type="TRUCK" vehsPerHour="9.0"/>
 <flow begin="0.0" end="3600.0" id="f_9_0_TRAILER" route="aurora_e_katip_s" type="TRAILER" vehsPerHour="1.0"/>
 <flow begin="0.0" end="3600.0" id="f_9_0_MOTORCYCLE" route="aurora_e_katip_s" type="MOTORCYCLE" vehsPerHour="133.0"/>
 <flow begin="3600.0" end="7200.0" id="f_0_1_CAR" route="katip_s_aurora_w" type="CAR" vehsPerHour="447.0"/>
 <flow begin="3600.0" end="7200.0" id="f_0_1_TAXI" route="katip_s_aurora_w" type="TAXI" vehsPerHour="46.0"/>
 <flow begin="3600.0" end="7200.0" id="f_0_1_BUS" route="katip_s_aurora_w" type="BUS" vehsPerHour="2.0"/>
 <flow begin="3600.0" end="7200.0" id="f_0_1_TRUCK" route="katip_s_aurora_w" type="TRUCK" vehsPerHour="11.0"/>
 <flow begin="3600.0" end="7200.0" id="f_0_1_MOTORCYCLE" route="katip_s_aurora_w" type="MOTORCYCLE" vehsPerHour="279.0"/>
 <flow begin="3600.0" end="7200.0" id="f_1_1_CAR" route="katip_s_u_turn" type="CAR" vehsPerHour="553.0"/>
 <flow begin="3600.0" end="7200.0" id="f_1_1_TAXI" route="katip_s_u_turn" type="TAXI" vehsPerHour="10.0"/>
 <flow begin="3600.0" end="7200.0" id="f_1_1_BUS" route="katip_s_u_turn" type="BUS" vehsPerHour="2.0"/>
 <flow begin="3600.0" end="7200.0" id="f_1_1_TRUCK" route="katip_s_u_turn" type="TRUCK" vehsPerHour="5.0"/>
 <flow begin="3600.0" end="7200.0" id="f_1_1_MOTORCYCLE" route="katip_s_u_turn" type="MOTORCYCLE" vehsPerHour="149.0"/>
 <flow begin="3600.0" end="7200.0" id="f_10_1_CAR" route="katip_n_u_turn" type="CAR" vehsPerHour="77.0"/>
 <flow begin="3600.0" end="7200.0" id="f_10_1_TAXI" route="katip_n_u_turn" type="TAXI" vehsPerHour="4.0"/>
 <flow begin="3600.0" end="7200.0" id="f_10_1_BUS" route="katip_n_u_turn" type="BUS" vehsPerHour="2.0"/>
 <flow begin="3600.0" end="7200.0" id="f_10_1_TRUCK" route="katip_n_u_turn" type="TRUCK" vehsPerHour="1.0"/>
 <flow begin="3600.0" end="7200.0" id="f_10_1_MOTORCYCLE" route="katip_n_u_turn" type="MOTORCYCLE" vehsPerHour="30.0"/>
 <flow begin="3600.0" end="7200.0" id="f_2_1_CAR" route="katip_s_aurora_e" type="CAR" vehsPerHour="132.0"/>
 <flow begin="3600.0" end="7200.0" id="f_2_1_TAXI" route="katip_s_aurora_e" type="TAXI" vehsPerHour="10.0"/>
 <flow begin="3600.0" end="7200.0" id="f_2_1_BUS" route="katip_s_aurora_e" type="BUS" vehsPerHour="2.0"/>
 <flow begin="3600.0" end="7200.0" id="f_2_1_TRUCK" route="katip_s_aurora_e" type="TRUCK" vehsPerHour="5.0"/>
 <flow begin="3600.0" end="7200.0" id="f_2_1_MOTORCYCLE" route="katip_s_aurora_e" type="MOTORCYCLE" vehsPerHour="149.0"/>
 <flow begin="3600.0" end="7200.0" id="f_3_1_CAR" route="aurora_e_katip_n" type="CAR" vehsPerHour="48.0"/>
 <flow begin="3600.0" end="7200.0" id="f_3_1_TRUCK" route="aurora_e_katip_n" type="TRUCK" vehsPerHour="51.0"/>
 <flow begin="3600.0" end="7200.0" id="f_3_1_TRAILER" route="aurora_e_katip_n" type="TRAILER" vehsPerHour="2.0"/>
 <flow begin="3600.0" end="7200.0" id="f_3_1_MOTORCYCLE" route="aurora_e_katip_n" type="MOTORCYCLE" vehsPerHour="43.0"/>
 <flow begin="3600.0" end="7200.0" id="f_4_1_CAR" route="aurora_e_aurora_w" type="CAR" vehsPerHour="890.0"/>
 <flow begin="3600.0" end="7200.0" id="f_4_1_TAXI" route="aurora_e_aurora_w" type="TAXI" vehsPerHour="802.0"/>
 <flow begin="3600.0" end="7200.0" id="f_4_1_BUS" route="aurora_e_aurora_w" type="BUS" vehsPerHour="10.0"/>
 <flow begin="3600.0" end="7200.0" id="f_4_1_TRUCK" route="aurora_e_aurora_w" type="TRUCK" vehsPerHour="15.0"/>
 <flow begin="3600.0" end="7200.0" id="f_4_1_TRAILER" route="aurora_e_aurora_w" type="TRAILER" vehsPerHour="1.0"/>
 <flow begin="3600.0" end="7200.0" id="f_4_1_MOTORCYCLE" route="aurora_e_aurora_w" type="MOTORCYCLE" vehsPerHour="2385.0"/>
 <flow begin="3600.0" end="7200.0" id="f_5_1_CAR" route="katip_n_aurora_w" type="CAR" vehsPerHour="70.0"/>
 <flow begin="3600.0" end="7200.0" id="f_5_1_TAXI" route="katip_n_aurora_w" type="TAXI" vehsPerHour="21.0"/>
 <flow begin="3600.0" end="7200.0" id="f_5_1_MOTORCYCLE" route="katip_n_aurora_w" type="MOTORCYCLE" vehsPerHour="141.0"/>
 <flow begin="3600.0" end="7200.0" id="f_6_1_CAR" route="katip_n_aurora_e" type="CAR" vehsPerHour="710.0"/>
 <flow begin="3600.0" end="7200.0" id="f_6_1_TAXI" route="katip_n_aurora_e" type="TAXI" vehsPerHour="39.0"/>
 <flow begin="3600.0" end="7200.0" id="f_6_1_TRUCK" route="katip_n_aurora_e" type="TRUCK" vehsPerHour="76.0"/>
 <flow begin="3600.0" end="7200.0" id="f_6_1_TRAILER" route="katip_n_aurora_e" type="TRAILER" vehsPerHour="3.0"/>
 <flow begin="3600.0" end="7200.0" id="f_6_1_MOTORCYCLE" route="katip_n_aurora_e" type="MOTORCYCLE" vehsPerHour="924.0"/>
 <flow begin="3600.0" end="7200.0" id="f_7_1_CAR" route="aurora_w_aurora_e" type="CAR" vehsPerHour="552.0"/>
 <flow begin="3600.0" end="7200.0" id="f_7_1_TAXI" route="aurora_w_aurora_e" type="TAXI" vehsPerHour="42.0"/>
 <flow begin="3600.0" end="7200.0" id="f_7_1_BUS" route="aurora_w_aurora_e" type="BUS" vehsPerHour="8.0"/>
 <flow begin="3600.0" end="7200.0" id="f_7_1_TRUCK" route="aurora_w_aurora_e" type="TRUCK" vehsPerHour="20.0"/>
 <flow begin="3600.0" end="7200.0" id="f_7_1_MOTORCYCLE" route="aurora_w_aurora_e" type="MOTORCYCLE" vehsPerHour="630.0"/>
 <flow begin="3600.0" end="7200.0" id="f_8_1_CAR" route="aurora_w_katip_s" type="CAR" vehsPerHour="107.0"/>
 <flow begin="3600.0" end="7200.0" id="f_8_1_TAXI" route="aurora_w_katip_s" type="TAXI" vehsPerHour="12.0"/>
 <flow begin="3600.0" end="7200.0" id="f_8_1_BUS" route="aurora_w_katip_s" type="BUS" vehsPerHour="3.0"/>
 <flow begin="3600.0" end="7200.0" id="f_8_1_TRUCK" route="aurora_w_katip_s" type="TRUCK" vehsPerHour="10.0"/>
 <flow begin="3600.0" end="7200.0" id="f_8_1_MOTORCYCLE" route="aurora_w_katip_s" type="MOTORCYCLE" vehsPerHour="111.0"/>
 <flow begin="3600.0" end="7200.0" id="f_9_1_CAR" route="aurora_e_katip_s" type="CAR" vehsPerHour="110.0"/>
 <flow begin="3600.0" end="7200.0" id="f_9_1_TAXI" route="aurora_e_katip_s" type="TAXI" vehsPerHour="8.0"/>
 <flow begin="3600.0" end="7200.0" id="f_9_1_BUS" route="aurora_e_katip_s" type="BUS" vehsPerHour="1.0"/>
 <flow begin="3600.0" end="7200.0" id="f_9_1_TRUCK" route="aurora_e_katip_s" type="TRUCK" vehsPerHour="10.0"/>
 <flow begin="3600.0" end="7200.0" id="f_9_1_TRAILER" route="aurora_e_katip_s" type="TRAILER" vehsPerHour="11.0"/>
 <flow begin="3600.0" end="7200.0" id="f_9_1_MOTORCYCLE" route="aurora_e_katip_s" type="MOTORCYCLE" vehsPerHour="135.0"/>
 <flow begin="7200.0" end="10800.0" id="f_0_2_CAR" route="katip_s_aurora_w" type="CAR" vehsPerHour="525.0"/>
 <flow begin="7200.0" end="10800.0" id="f_0_2_TAXI" route="katip_s_aurora_w" type="TAXI" vehsPerHour="42.0"/>
 <flow begin="7200.0" end="10800.0" id="f_0_2_BUS" route="katip_s_aurora_w" type="BUS" vehsPerHour="11.0"/>
 <flow begin="7200.0" end="10800.0" id="f_0_2_TRUCK" route="katip_s_aurora_w" type="TRUCK" vehsPerHour="10.0"/>
 <flow begin="7200.0" end="10800.0" id="f_0_2_MOTORCYCLE" route="katip_s_aurora_w" type="MOTORCYCLE" vehsPerHour="341.0"/>
 <flow begin="7200.0" end="10800.0" id="f_1_2_CAR" route="katip_s_u_turn" type="CAR" vehsPerHour="319.0"/>
 <flow begin="7200.0" end="10800.0" id="f_1_2_TAXI" route="katip_s_u_turn" type="TAXI" vehsPerHour="9.0"/>
 <flow begin="7200.0" end="10800.0" id="f_1_2_TRUCK" route="katip_s_u_turn" type="TRUCK" vehsPerHour="3.0"/>
 <flow begin="7200.0" end="10800.0" id="f_1_2_MOTORCYCLE" route="katip_s_u_turn" type="MOTORCYCLE" vehsPerHour="99.0"/>
 <flow begin="7200.0" end="10800.0" id="f_10_2_CAR" route="katip_n_u_turn" type="CAR" vehsPerHour="78.0"/>
 <flow begin="7200.0" end="10800.0" id="f_10_2_TAXI" route="katip_n_u_turn" type="TAXI" vehsPerHour="5.0"/>
 <flow begin="7200.0" end="10800.0" id="f_10_2_MOTORCYCLE" route="katip_n_u_turn" type="MOTORCYCLE" vehsPerHour="33.0"/>
 <flow begin="7200.0" end="10800.0" id="f_2_2_CAR" route="katip_s_aurora_e" type="CAR" vehsPerHour="106.0"/>
 <flow begin="7200.0" end="10800.0" id="f_2_2_TAXI" route="katip_s_aurora_e" type="TAXI" vehsPerHour="9.0"/>
 <flow begin="7200.0" end="10800.0" id="f_2_2_TRUCK" route="katip_s_aurora_e" type="TRUCK" vehsPerHour="3.0"/>
 <flow begin="7200.0" end="10800.0" id="f_2_2_MOTORCYCLE" route="katip_s_aurora_e" type="MOTORCYCLE" vehsPerHour="99.0"/>
 <flow begin="7200.0" end="10800.0" id="f_3_2_CAR" route="aurora_e_katip_n" type="CAR" vehsPerHour="53.0"/>
 <flow begin="7200.0" end="10800.0" id="f_3_2_TAXI" route="aurora_e_katip_n" type="TAXI" vehsPerHour="7.0"/>
 <flow begin="7200.0" end="10800.0" id="f_3_2_TRUCK" route="aurora_e_katip_n" type="TRUCK" vehsPerHour="47.0"/>
 <flow begin="7200.0" end="10800.0" id="f_3_2_TRAILER" route="aurora_e_katip_n" type="TRAILER" vehsPerHour="6.0"/>
 <flow begin="7200.0" end="10800.0" id="f_3_2_MOTORCYCLE" route="aurora_e_katip_n" type="MOTORCYCLE" vehsPerHour="47.0"/>
 <flow begin="7200.0" end="10800.0" id="f_4_2_CAR" route="aurora_e_aurora_w" type="CAR" vehsPerHour="1647.0"/>
 <flow begin="7200.0" end="10800.0" id="f_4_2_TAXI" route="aurora_e_aurora_w" type="TAXI" vehsPerHour="165.0"/>
 <flow begin="7200.0" end="10800.0" id="f_4_2_BUS" route="aurora_e_aurora_w" type="BUS" vehsPerHour="18.0"/>
 <flow begin="7200.0" end="10800.0" id="f_4_2_TRUCK" route="aurora_e_aurora_w" type="TRUCK" vehsPerHour="49.0"/>
 <flow begin="7200.0" end="10800.0" id="f_4_2_MOTORCYCLE" route="aurora_e_aurora_w" type="MOTORCYCLE" vehsPerHour="3365.0"/>
 <flow begin="7200.0" end="10800.0" id="f_5_2_CAR" route="katip_n_aurora_w" type="CAR" vehsPerHour="78.0"/>
 <flow begin="7200.0" end="10800.0" id="f_5_2_TAXI" route="katip_n_aurora_w" type="TAXI" vehsPerHour="20.0"/>
 <flow begin="7200.0" end="10800.0" id="f_5_2_TRUCK" route="katip_n_aurora_w" type="TRUCK" vehsPerHour="5.0"/>
 <flow begin="7200.0" end="10800.0" id="f_5_2_MOTORCYCLE" route="katip_n_aurora_w" type="MOTORCYCLE" vehsPerHour="104.0"/>
 <flow begin="7200.0" end="10800.0" id="f_6_2_CAR" route="katip_n_aurora_e" type="CAR" vehsPerHour="642.0"/>
 <flow begin="7200.0" end="10800.0" id="f_6_2_TAXI" route="katip_n_aurora_e" type="TAXI" vehsPerHour="37.0"/>
 <flow begin="7200.0" end="10800.0" id="f_6_2_TRUCK" route="katip_n_aurora_e" type="TRUCK" vehsPerHour="79.0"/>
 <flow begin="7200.0" end="10800.0" id="f_6_2_TRAILER" route="katip_n_aurora_e" type="TRAILER" vehsPerHour="1.0"/>
 <flow begin="7200.0" end="10800.0" id="f_6_2_MOTORCYCLE" route="katip_n_aurora_e" type="MOTORCYCLE" vehsPerHour="765.0"/>
 <flow begin="7200.0" end="10800.0" id="f_7_2_CAR" route="aurora_w_aurora_e" type="CAR" vehsPerHour="434.0"/>
 <flow begin="7200.0" end="10800.0" id="f_7_2_TAXI" route="aurora_w_aurora_e" type="TAXI" vehsPerHour="55.0"/>
 <flow begin="7200.0" end="10800.0" id="f_7_2_BUS" route="aurora_w_aurora_e" type="BUS" vehsPerHour="8.0"/>
 <flow begin="7200.0" end="10800.0" id="f_7_2_TRUCK" route="aurora_w_aurora_e" type="TRUCK" vehsPerHour="22.0"/>
 <flow begin="7200.0" end="10800.0" id="f_7_2_TRAILER" route="aurora_w_aurora_e" type="TRAILER" vehsPerHour="2.0"/>
 <flow begin="7200.0" end="10800.0" id="f_7_2_MOTORCYCLE" route="aurora_w_aurora_e" type="MOTORCYCLE" vehsPerHour="689.0"/>
 <flow begin="7200.0" end="10800.0" id="f_8_2_CAR" route="aurora_w_katip_s" type="CAR" vehsPerHour="115.0"/>
 <flow begin="7200.0" end="10800.0" id="f_8_2_TAXI" route="aurora_w_katip_s" type="TAXI" vehsPerHour="13.0"/>
 <flow begin="7200.0" end="10800.0" id="f_8_2_BUS" route="aurora_w_katip_s" type="BUS" vehsPerHour="1.0"/>
 <flow begin="7200.0" end="10800.0" id="f_8_2_TRUCK" route="aurora_w_katip_s" type="TRUCK" vehsPerHour="8.0"/>
 <flow begin="7200.0" end="10800.0" id="f_8_2_MOTORCYCLE" route="aurora_w_katip_s" type="MOTORCYCLE" vehsPerHour="147.0"/>
 <flow begin="7200.0" end="10800.0" id="f_9_2_CAR" route="aurora_e_katip_s" type="CAR" vehsPerHour="98.0"/>
 <flow begin="7200.0" end="10800.0" id="f_9_2_TAXI" route="aurora_e_katip_s" type="TAXI" vehsPerHour="7.0"/>
 <flow begin="7200.0" end="10800.0" id="f_9_2_TRUCK" route="aurora_e_katip_s" type="TRUCK" vehsPerHour="7.0"/>
 <flow begin="7200.0" end="10800.0" id="f_9_2_TRAILER" route="aurora_e_katip_s" type="TRAILER" vehsPerHour="2.0"/>
 <flow begin="7200.0" end="10800.0" id="f_9_2_MOTORCYCLE" route="aurora_e_katip_s" type="MOTORCYCLE" vehsPerHour="126.0"/>
 <flow begin="10800.0" end="14400.0" id="f_0_3_CAR" route="katip_s_aurora_w" type="CAR" vehsPerHour="478.0"/>
 <flow begin="10800.0" end="14400.0" id="f_0_3_TAXI" route="katip_s_aurora_w" type="TAXI" vehsPerHour="39.0"/>
 <flow begin="10800.0" end="14400.0" id="f_0_3_BUS" route="katip_s_aurora_w" type="BUS" vehsPerHour="11.0"/>
 <flow begin="10800.0" end="14400.0" id="f_0_3_TRUCK" route="katip_s_aurora_w" type="TRUCK" vehsPerHour="19.0"/>
 <flow begin="10800.0" end="14400.0" id="f_0_3_TRAILER" route="katip_s_aurora_w" type="TRAILER" vehsPerHour="1.0"/>
 <flow begin="10800.0" end="14400.0" id="f_0_3_MOTORCYCLE" route="katip_s_aurora_w" type="MOTORCYCLE" vehsPerHour="262.0"/>
 <flow begin="10800.0" end="14400.0" id="f_1_3_CAR" route="katip_s_u_turn" type="CAR" vehsPerHour="288.0"/>
 <flow begin="10800.0" end="14400.0" id="f_1_3_TAXI" route="katip_s_u_turn" type="TAXI" vehsPerHour="34.0"/>
 <flow begin="10800.0" end="14400.0" id="f_1_3_BUS" route="katip_s_u_turn" type="BUS" vehsPerHour="2.0"/>
 <flow begin="10800.0" end="14400.0" id="f_1_3_TRUCK" route="katip_s_u_turn" type="TRUCK" vehsPerHour="2.0"/>
 <flow begin="10800.0" end="14400.0" id="f_1_3_MOTORCYCLE" route="katip_s_u_turn" type="MOTORCYCLE" vehsPerHour="139.0"/>
 <flow begin="10800.0" end="14400.0" id="f_10_3_CAR" route="katip_n_u_turn" type="CAR" vehsPerHour="98.0"/>
 <flow begin="10800.0" end="14400.0" id="f_10_3_TAXI" route="katip_n_u_turn" type="TAXI" vehsPerHour="1.0"/>
 <flow begin="10800.0" end="14400.0" id="f_10_3_TRUCK" route="katip_n_u_turn" type="TRUCK" vehsPerHour="4.0"/>
 <flow begin="10800.0" end="14400.0" id="f_10_3_MOTORCYCLE" route="katip_n_u_turn" type="MOTORCYCLE" vehsPerHour="32.0"/>
 <flow begin="10800.0" end="14400.0" id="f_2_3_CAR" route="katip_s_aurora_e" type="CAR" vehsPerHour="133.0"/>
 <flow begin="10800.0" end="14400.0" id="f_2_3_TAXI" route="katip_s_aurora_e" type="TAXI" vehsPerHour="34.0"/>
 <flow begin="10800.0" end="14400.0" id="f_2_3_BUS" route="katip_s_aurora_e" type="BUS" vehsPerHour="2.0"/>
 <flow begin="10800.0" end="14400.0" id="f_2_3_TRUCK" route="katip_s_aurora_e" type="TRUCK" vehsPerHour="2.0"/>
 <flow begin="10800.0" end="14400.0" id="f_2_3_MOTORCYCLE" route="katip_s_aurora_e" type="MOTORCYCLE" vehsPerHour="139.0"/>
 <flow begin="10800.0" end="14400.0" id="f_3_3_CAR" route="aurora_e_katip_n" type="CAR" vehsPerHour="54.0"/>
 <flow begin="10800.0" end="14400.0" id="f_3_3_TAXI" route="aurora_e_katip_n" type="TAXI" vehsPerHour="6.0"/>
 <flow begin="10800.0" end="14400.0" id="f_3_3_TRUCK" route="aurora_e_katip_n" type="TRUCK" vehsPerHour="60.0"/>
 <flow begin="10800.0" end="14400.0" id="f_3_3_TRAILER" route="aurora_e_katip_n" type="TRAILER" vehsPerHour="5.0"/>
 <flow begin="10800.0" end="14400.0" id="f_3_3_MOTORCYCLE" route="aurora_e_katip_n" type="MOTORCYCLE" vehsPerHour="51.0"/>
 <flow begin="10800.0" end="14400.0" id="f_4_3_CAR" route="aurora_e_aurora_w" type="CAR" vehsPerHour="1284.0"/>
 <flow begin="10800.0" end="14400.0" id="f_4_3_TAXI" route="aurora_e_aurora_w" type="TAXI" vehsPerHour="81.0"/>
 <flow begin="10800.0" end="14400.0" id="f_4_3_BUS" route="aurora_e_aurora_w" type="BUS" vehsPerHour="10.0"/>
 <flow begin="10800.0" end="14400.0" id="f_4_3_TRUCK" route="aurora_e_aurora_w" type="TRUCK" vehsPerHour="34.0"/>
 <flow begin="10800.0" end="14400.0" id="f_4_3_TRAILER" route="aurora_e_aurora_w" type="TRAILER" vehsPerHour="1.0"/>
 <flow begin="10800.0" end="14400.0" id="f_4_3_MOTORCYCLE" route="aurora_e_aurora_w" type="MOTORCYCLE" vehsPerHour="1349.0"/>
 <flow begin="10800.0" end="14400.0" id="f_5_3_CAR" route="katip_n_aurora_w" type="CAR" vehsPerHour="58.0"/>
 <flow begin="10800.0" end="14400.0" id="f_5_3_TAXI" route="katip_n_aurora_w" type="TAXI" vehsPerHour="24.0"/>
 <flow begin="10800.0" end="14400.0" id="f_5_3_TRUCK" route="katip_n_aurora_w" type="TRUCK" vehsPerHour="4.0"/>
 <flow begin="10800.0" end="14400.0" id="f_5_3_MOTORCYCLE" route="katip_n_aurora_w" type="MOTORCYCLE" vehsPerHour="113.0"/>
 <flow begin="10800.0" end="14400.0" id="f_6_3_CAR" route="katip_n_aurora_e" type="CAR" vehsPerHour="764.0"/>
 <flow begin="10800.0" end="14400.0" id="f_6_3_TAXI" route="katip_n_aurora_e" type="TAXI" vehsPerHour="52.0"/>
 <flow begin="10800.0" end="14400.0" id="f_6_3_TRUCK" route="katip_n_aurora_e" type="TRUCK" vehsPerHour="104.0"/>
 <flow begin="10800.0" end="14400.0" id="f_6_3_TRAILER" route="katip_n_aurora_e" type="TRAILER" vehsPerHour="5.0"/>
 <flow begin="10800.0" end="14400.0" id="f_6_3_MOTORCYCLE" route="katip_n_aurora_e" type="MOTORCYCLE" vehsPerHour="782.0"/>
 <flow begin="10800.0" end="14400.0" id="f_7_3_CAR" route="aurora_w_aurora_e" type="CAR" vehsPerHour="461.0"/>
 <flow begin="10800.0" end="14400.0" id="f_7_3_TAXI" route="aurora_w_aurora_e" type="TAXI" vehsPerHour="86.0"/>
 <flow begin="10800.0" end="14400.0" id="f_7_3_BUS" route="aurora_w_aurora_e" type="BUS" vehsPerHour="13.0"/>
 <flow begin="10800.0" end="14400.0" id="f_7_3_TRUCK" route="aurora_w_aurora_e" type="TRUCK" vehsPerHour="30.0"/>
 <flow begin="10800.0" end="14400.0" id="f_7_3_MOTORCYCLE" route="aurora_w_aurora_e" type="MOTORCYCLE" vehsPerHour="640.0"/>
 <flow begin="10800.0" end="14400.0" id="f_8_3_CAR" route="aurora_w_katip_s" type="CAR" vehsPerHour="110.0"/>
 <flow begin="10800.0" end="14400.0" id="f_8_3_TAXI" route="aurora_w_katip_s" type="TAXI" vehsPerHour="12.0"/>
 <flow begin="10800.0" end="14400.0" id="f_8_3_TRUCK" route="aurora_w_katip_s" type="TRUCK" vehsPerHour="9.0"/>
 <flow begin="10800.0" end="14400.0" id="f_8_3_MOTORCYCLE" route="aurora_w_katip_s" type="MOTORCYCLE" vehsPerHour="128.0"/>
 <flow begin="10800.0" end="14400.0" id="f_9_3_CAR" route="aurora_e_katip_s" type="CAR" vehsPerHour="98.0"/>
 <flow begin="10800.0" end="14400.0" id="f_9_3_TAXI" route="aurora_e_katip_s" type="TAXI" vehsPerHour="3.0"/>
 <flow begin="10800.0" end="14400.0" id="f_9_3_BUS" route="aurora_e_katip_s" type="BUS" vehsPerHour="1.0"/>
 <flow begin="10800.0" end="14400.0" id="f_9_3_TRUCK" route="aurora_e_katip_s" type="TRUCK" vehsPerHour="5.0"/>
 <flow begin="10800.0" end="14400.0" id="f_9_3_TRAILER" route="aurora_e_katip_s" type="TRAILER" vehsPerHour="1.0"/>
 <flow begin="10800.0" end="14400.0" id="f_9_3_MOTORCYCLE" route="aurora_e_katip_s" type="MOTORCYCLE" vehsPerHour="76.0"/>
 <flow begin="14400.0" end="18000.0" id="f_0_4_CAR" route="katip_s_aurora_w" type="CAR" vehsPerHour="441.0"/>
 <flow begin="14400.0" end="18000.0" id="f_0_4_TAXI" route="katip_s_aurora_w" type="TAXI" vehsPerHour="27.0"/>
 <flow begin="14400.0" end="18000.0" id="f_0_4_BUS" route="katip_s_aurora_w" type="BUS" vehsPerHour="9.0"/>
 <flow begin="14400.0" end="18000.0" id="f_0_4_TRUCK" route="katip_s_aurora_w" type="TRUCK" vehsPerHour="21.0"/>
 <flow begin="14400.0" end="18000.0" id="f_0_4_MOTORCYCLE" route="katip_s_aurora_w" type="MOTORCYCLE" vehsPerHour="281.0"/>
 <flow begin="14400.0" end="18000.0" id="f_1_4_CAR" route="katip_s_u_turn" type="CAR" vehsPerHour="290.0"/>
 <flow begin="14400.0" end="18000.0" id="f_1_4_TAXI" route="katip_s_u_turn" type="TAXI" vehsPerHour="13.0"/>
 <flow begin="14400.0" end="18000.0" id="f_1_4_BUS" route="katip_s_u_turn" type="BUS" vehsPerHour="1.0"/>
 <flow begin="14400.0" end="18000.0" id="f_1_4_MOTORCYCLE" route="katip_s_u_turn" type="MOTORCYCLE" vehsPerHour="106.0"/>
 <flow begin="14400.0" end="18000.0" id="f_10_4_CAR" route="katip_n_u_turn" type="CAR" vehsPerHour="112.0"/>
 <flow begin="14400.0" end="18000.0" id="f_10_4_TAXI" route="katip_n_u_turn" type="TAXI" vehsPerHour="3.0"/>
 <flow begin="14400.0" end="18000.0" id="f_10_4_TRUCK" route="katip_n_u_turn" type="TRUCK" vehsPerHour="1.0"/>
 <flow begin="14400.0" end="18000.0" id="f_10_4_MOTORCYCLE" route="katip_n_u_turn" type="MOTORCYCLE" vehsPerHour="31.0"/>
 <flow begin="14400.0" end="18000.0" id="f_2_4_CAR" route="katip_s_aurora_e" type="CAR" vehsPerHour="88.0"/>
 <flow begin="14400.0" end="18000.0" id="f_2_4_TAXI" route="katip_s_aurora_e" type="TAXI" vehsPerHour="13.0"/>
 <flow begin="14400.0" end="18000.0" id="f_2_4_BUS" route="katip_s_aurora_e" type="BUS" vehsPerHour="1.0"/>
 <flow begin="14400.0" end="18000.0" id="f_2_4_MOTORCYCLE" route="katip_s_aurora_e" type="MOTORCYCLE" vehsPerHour="106.0"/>
 <flow begin="14400.0" end="18000.0" id="f_3_4_CAR" route="aurora_e_katip_n" type="CAR" vehsPerHour="98.0"/>
 <flow begin="14400.0" end="18000.0" id="f_3_4_TAXI" route="aurora_e_katip_n" type="TAXI" vehsPerHour="8.0"/>
 <flow begin="14400.0" end="18000.0" id="f_3_4_TRUCK" route="aurora_e_katip_n" type="TRUCK" vehsPerHour="121.0"/>
 <flow begin="14400.0" end="18000.0" id="f_3_4_TRAILER" route="aurora_e_katip_n" type="TRAILER" vehsPerHour="18.0"/>
 <flow begin="14400.0" end="18000.0" id="f_3_4_MOTORCYCLE" route="aurora_e_katip_n" type="MOTORCYCLE" vehsPerHour="52.0"/>
 <flow begin="14400.0" end="18000.0" id="f_4_4_CAR" route="aurora_e_aurora_w" type="CAR" vehsPerHour="589.0"/>
 <flow begin="14400.0" end="18000.0" id="f_4_4_TAXI" route="aurora_e_aurora_w" type="TAXI" vehsPerHour="111.0"/>
 <flow begin="14400.0" end="18000.0" id="f_4_4_BUS" route="aurora_e_aurora_w" type="BUS" vehsPerHour="8.0"/>
 <flow begin="14400.0" end="18000.0" id="f_4_4_TRUCK" route="aurora_e_aurora_w" type="TRUCK" vehsPerHour="69.0"/>
 <flow begin="14400.0" end="18000.0" id="f_4_4_TRAILER" route="aurora_e_aurora_w" type="TRAILER" vehsPerHour="2.0"/>
 <flow begin="14400.0" end="18000.0" id="f_4_4_MOTORCYCLE" route="aurora_e_aurora_w" type="MOTORCYCLE" vehsPerHour="1264.0"/>
 <flow begin="14400.0" end="18000.0" id="f_5_4_CAR" route="katip_n_aurora_w" type="CAR" vehsPerHour="44.0"/>
 <flow begin="14400.0" end="18000.0" id="f_5_4_TAXI" route="katip_n_aurora_w" type="TAXI" vehsPerHour="21.0"/>
 <flow begin="14400.0" end="18000.0" id="f_5_4_TRUCK" route="katip_n_aurora_w" type="TRUCK" vehsPerHour="8.0"/>
 <flow begin="14400.0" end="18000.0" id="f_5_4_MOTORCYCLE" route="katip_n_aurora_w" type="MOTORCYCLE" vehsPerHour="141.0"/>
 <flow begin="14400.0" end="18000.0" id="f_6_4_CAR" route="katip_n_aurora_e" type="CAR" vehsPerHour="710.0"/>
 <flow begin="14400.0" end="18000.0" id="f_6_4_TAXI" route="katip_n_aurora_e" type="TAXI" vehsPerHour="54.0"/>
 <flow begin="14400.0" end="18000.0" id="f_6_4_TRUCK" route="katip_n_aurora_e" type="TRUCK" vehsPerHour="130.0"/>
 <flow begin="14400.0" end="18000.0" id="f_6_4_TRAILER" route="katip_n_aurora_e" type="TRAILER" vehsPerHour="10.0"/>
 <flow begin="14400.0" end="18000.0" id="f_6_4_MOTORCYCLE" route="katip_n_aurora_e" type="MOTORCYCLE" vehsPerHour="751.0"/>
 <flow begin="14400.0" end="18000.0" id="f_7_4_CAR" route="aurora_w_aurora_e" type="CAR" vehsPerHour="550.0"/>