<configuration>
    <net-file value="C:\Users\Uy Family\Documents\GitHub\Smart-Traffic\sumo\25-3-lendl-ver.net.xml"/>
    <route-files value="C:\Users\Uy Family\Documents\GitHub\Smart-Traffic\sumo\micro\003\4-3-test-demand-vianetedit_000.rou.alt.xml"/>
</configuration>
