<configuration>
    <net-file value="C:\Users\lendl\Documents\smart_traffic\sumo\4-3-added-demand_routes.net.xml"/>
    <route-files value="C:\Users\lendl\Documents\smart_traffic\sumo\4-3-test-demand-vianetedit.rou.xml"/>
</configuration>
