<?xml version="1.0" encoding="UTF-8"?>

<!-- generated on 2023-03-25 23:11:38 by Eclipse SUMO netedit Version 1.15.0
-->

<routes xmlns:xsi="http://www.w3.org/2001/XMLSchema-instance" xsi:noNamespaceSchemaLocation="http://sumo.dlr.de/xsd/routes_file.xsd">
    <!-- VTypes -->
    <vType id="BUS" minGap="1.25" vClass="bus" sigma="0.25" speedDev="0.0"/>
    <vType id="CAR" minGap="1.25" vClass="passenger" sigma="0.25" speedDev="0.0"/>
    <vType id="MOTORCYCLE" minGap="0.25" vClass="motorcycle" sigma="0.25" speedDev="0.0"/>
    <vType id="TAXI" minGap="1.25" vClass="taxi" sigma="0.25" speedDev="0.0"/>
    <vType id="TRAILER" minGap="1.50" vClass="trailer" sigma="0.25" speedDev="0.0"/>
    <vType id="TRUCK" minGap="1.50" vClass="truck" sigma="0.25" speedDev="0.0"/>
    <!-- Routes -->
    <route id="aurora_e_aurora_w" edges="933952934#0 4601641#0"/>
    <route id="aurora_e_katip_n" edges="933952934#0 26296778#0 26296778#2.16 26296778#2.51"/>
    <route id="aurora_e_katip_s" edges="933952934#0 703023054 780157088 780157088.15 780157088.34"/>
    <route id="aurora_w_aurora_e" edges="591107291#0 591107291#1 609205085 1078018160 430789454#0 1078018158"/>
    <route id="aurora_w_katip_s" edges="591107291#0 591107291#1 26296781#0 26296781#1 780157088 780157088.15 780157088.34"/>
    <route id="katip_n_aurora_e" edges="1076383725 1076383725.44 1076383725.80 1078018160 430789454#0 1078018158"/>
    <route id="katip_n_aurora_w" edges="1076383725 1076383725.44 1076383725.80 4601641#0"/>
    <route id="katip_n_u_turn" edges="1076383725 E1 26296778#2.51"/>
    <route id="katip_s_aurora_e" edges="780157087#0 780157087#0.14 780157087#0.33 780157087#2 1078018164 1078018160 430789454#0 1078018158"/>
    <route id="katip_s_aurora_w" edges="780157087#0 780157087#0.14 780157087#0.33 780157087#2 1078018163 4601641#0"/>
    <route id="katip_s_u_turn" edges="780157087#0 E3 780157088.34"/>
    <!-- Vehicles, persons and containers (sorted by depart) -->
    <flow id="f_0_0_BUS" type="BUS" begin="0.00" route="katip_s_aurora_w" end="3600.00" vehsPerHour="9.00"/>
    <flow id="f_0_0_CAR" type="CAR" begin="0.00" route="katip_s_aurora_w" end="3600.00" vehsPerHour="354.02"/>
    <flow id="f_0_0_MOTORCYCLE" type="MOTORCYCLE" begin="0.00" route="katip_s_aurora_w" end="3600.00" vehsPerHour="184.00"/>
    <flow id="f_0_0_TAXI" type="TAXI" begin="0.00" route="katip_s_aurora_w" end="3600.00" vehsPerHour="25.00"/>
    <flow id="f_0_0_TRUCK" type="TRUCK" begin="0.00" route="katip_s_aurora_w" end="3600.00" vehsPerHour="5.00"/>
    <flow id="f_10_0_CAR" type="CAR" begin="0.00" route="katip_n_u_turn" end="3600.00" vehsPerHour="66.00"/>
    <flow id="f_10_0_MOTORCYCLE" type="MOTORCYCLE" begin="0.00" route="katip_n_u_turn" end="3600.00" vehsPerHour="38.00"/>
    <flow id="f_10_0_TAXI" type="TAXI" begin="0.00" route="katip_n_u_turn" end="3600.00" vehsPerHour="2.00"/>
    <flow id="f_10_0_TRUCK" type="TRUCK" begin="0.00" route="katip_n_u_turn" end="3600.00" vehsPerHour="2.00"/>
    <flow id="f_1_0_BUS" type="BUS" begin="0.00" route="katip_s_u_turn" end="3600.00" vehsPerHour="1.00"/>
    <flow id="f_1_0_CAR" type="CAR" begin="0.00" route="katip_s_u_turn" end="3600.00" vehsPerHour="444.99"/>
    <flow id="f_1_0_MOTORCYCLE" type="MOTORCYCLE" begin="0.00" route="katip_s_u_turn" end="3600.00" vehsPerHour="56.00"/>
    <flow id="f_1_0_TAXI" type="TAXI" begin="0.00" route="katip_s_u_turn" end="3600.00" vehsPerHour="2.00"/>
    <flow id="f_1_0_TRUCK" type="TRUCK" begin="0.00" route="katip_s_u_turn" end="3600.00" vehsPerHour="6.00"/>
    <flow id="f_2_0_BUS" type="BUS" begin="0.00" route="katip_s_aurora_e" end="3600.00" vehsPerHour="1.00"/>
    <flow id="f_2_0_CAR" type="CAR" begin="0.00" route="katip_s_aurora_e" end="3600.00" vehsPerHour="60.00"/>
    <flow id="f_2_0_MOTORCYCLE" type="MOTORCYCLE" begin="0.00" route="katip_s_aurora_e" end="3600.00" vehsPerHour="56.00"/>
    <flow id="f_2_0_TAXI" type="TAXI" begin="0.00" route="katip_s_aurora_e" end="3600.00" vehsPerHour="2.00"/>
    <flow id="f_2_0_TRUCK" type="TRUCK" begin="0.00" route="katip_s_aurora_e" end="3600.00" vehsPerHour="6.00"/>
    <flow id="f_3_0_CAR" type="CAR" begin="0.00" route="aurora_e_katip_n" end="3600.00" vehsPerHour="44.00"/>
    <flow id="f_3_0_MOTORCYCLE" type="MOTORCYCLE" begin="0.00" route="aurora_e_katip_n" end="3600.00" vehsPerHour="46.00"/>
    <flow id="f_3_0_TRAILER" type="TRAILER" begin="0.00" route="aurora_e_katip_n" end="3600.00" vehsPerHour="2.00"/>
    <flow id="f_3_0_TRUCK" type="TRUCK" begin="0.00" route="aurora_e_katip_n" end="3600.00" vehsPerHour="32.00"/>
    <flow id="f_4_0_BUS" type="BUS" begin="0.00" route="aurora_e_aurora_w" end="3600.00" vehsPerHour="10.00"/>
    <flow id="f_4_0_CAR" type="CAR" begin="0.00" route="aurora_e_aurora_w" end="3600.00" vehsPerHour="1529.96"/>
    <flow id="f_4_0_MOTORCYCLE" type="MOTORCYCLE" begin="0.00" route="aurora_e_aurora_w" end="3600.00" vehsPerHour="2104.03"/>
    <flow id="f_4_0_TAXI" type="TAXI" begin="0.00" route="aurora_e_aurora_w" end="3600.00" vehsPerHour="104.00"/>
    <flow id="f_4_0_TRUCK" type="TRUCK" begin="0.00" route="aurora_e_aurora_w" end="3600.00" vehsPerHour="23.00"/>
    <flow id="f_5_0_CAR" type="CAR" begin="0.00" route="katip_n_aurora_w" end="3600.00" vehsPerHour="64.00"/>
    <flow id="f_5_0_MOTORCYCLE" type="MOTORCYCLE" begin="0.00" route="katip_n_aurora_w" end="3600.00" vehsPerHour="121.00"/>
    <flow id="f_5_0_TAXI" type="TAXI" begin="0.00" route="katip_n_aurora_w" end="3600.00" vehsPerHour="42.00"/>
    <flow id="f_5_0_TRUCK" type="TRUCK" begin="0.00" route="katip_n_aurora_w" end="3600.00" vehsPerHour="3.00"/>
    <flow id="f_6_0_BUS" type="BUS" begin="0.00" route="katip_n_aurora_e" end="3600.00" vehsPerHour="1.00"/>
    <flow id="f_6_0_CAR" type="CAR" begin="0.00" route="katip_n_aurora_e" end="3600.00" vehsPerHour="554.02"/>
    <flow id="f_6_0_MOTORCYCLE" type="MOTORCYCLE" begin="0.00" route="katip_n_aurora_e" end="3600.00" vehsPerHour="986.03"/>
    <flow id="f_6_0_TAXI" type="TAXI" begin="0.00" route="katip_n_aurora_e" end="3600.00" vehsPerHour="24.00"/>
    <flow id="f_6_0_TRAILER" type="TRAILER" begin="0.00" route="katip_n_aurora_e" end="3600.00" vehsPerHour="6.00"/>
    <flow id="f_6_0_TRUCK" type="TRUCK" begin="0.00" route="katip_n_aurora_e" end="3600.00" vehsPerHour="88.00"/>
    <flow id="f_7_0_BUS" type="BUS" begin="0.00" route="aurora_w_aurora_e" end="3600.00" vehsPerHour="6.00"/>
    <flow id="f_7_0_CAR" type="CAR" begin="0.00" route="aurora_w_aurora_e" end="3600.00" vehsPerHour="400.98"/>
    <flow id="f_7_0_MOTORCYCLE" type="MOTORCYCLE" begin="0.00" route="aurora_w_aurora_e" end="3600.00" vehsPerHour="581.02"/>
    <flow id="f_7_0_TAXI" type="TAXI" begin="0.00" route="aurora_w_aurora_e" end="3600.00" vehsPerHour="45.00"/>
    <flow id="f_7_0_TRUCK" type="TRUCK" begin="0.00" route="aurora_w_aurora_e" end="3600.00" vehsPerHour="18.00"/>
    <flow id="f_8_0_CAR" type="CAR" begin="0.00" route="aurora_w_katip_s" end="3600.00" vehsPerHour="121.00"/>
    <flow id="f_8_0_MOTORCYCLE" type="MOTORCYCLE" begin="0.00" route="aurora_w_katip_s" end="3600.00" vehsPerHour="109.00"/>
    <flow id="f_8_0_TAXI" type="TAXI" begin="0.00" route="aurora_w_katip_s" end="3600.00" vehsPerHour="13.00"/>
    <flow id="f_9_0_BUS" type="BUS" begin="0.00" route="aurora_e_katip_s" end="3600.00" vehsPerHour="1.00"/>
    <flow id="f_9_0_CAR" type="CAR" begin="0.00" route="aurora_e_katip_s" end="3600.00" vehsPerHour="123.00"/>
    <flow id="f_9_0_MOTORCYCLE" type="MOTORCYCLE" begin="0.00" route="aurora_e_katip_s" end="3600.00" vehsPerHour="133.00"/>
    <flow id="f_9_0_TAXI" type="TAXI" begin="0.00" route="aurora_e_katip_s" end="3600.00" vehsPerHour="13.00"/>
    <flow id="f_9_0_TRAILER" type="TRAILER" begin="0.00" route="aurora_e_katip_s" end="3600.00" vehsPerHour="1.00"/>
    <flow id="f_9_0_TRUCK" type="TRUCK" begin="0.00" route="aurora_e_katip_s" end="3600.00" vehsPerHour="9.00"/>
    <flow id="f_0_1_BUS" type="BUS" begin="3600.00" route="katip_s_aurora_w" end="7200.00" vehsPerHour="2.00"/>
    <flow id="f_0_1_CAR" type="CAR" begin="3600.00" route="katip_s_aurora_w" end="7200.00" vehsPerHour="446.98"/>
    <flow id="f_0_1_MOTORCYCLE" type="MOTORCYCLE" begin="3600.00" route="katip_s_aurora_w" end="7200.00" vehsPerHour="279.00"/>
    <flow id="f_0_1_TAXI" type="TAXI" begin="3600.00" route="katip_s_aurora_w" end="7200.00" vehsPerHour="46.00"/>
    <flow id="f_0_1_TRUCK" type="TRUCK" begin="3600.00" route="katip_s_aurora_w" end="7200.00" vehsPerHour="11.00"/>
    <flow id="f_10_1_BUS" type="BUS" begin="3600.00" route="katip_n_u_turn" end="7200.00" vehsPerHour="2.00"/>
    <flow id="f_10_1_CAR" type="CAR" begin="3600.00" route="katip_n_u_turn" end="7200.00" vehsPerHour="77.00"/>
    <flow id="f_10_1_MOTORCYCLE" type="MOTORCYCLE" begin="3600.00" route="katip_n_u_turn" end="7200.00" vehsPerHour="30.00"/>
    <flow id="f_10_1_TAXI" type="TAXI" begin="3600.00" route="katip_n_u_turn" end="7200.00" vehsPerHour="4.00"/>
    <flow id="f_10_1_TRUCK" type="TRUCK" begin="3600.00" route="katip_n_u_turn" end="7200.00" vehsPerHour="1.00"/>
    <flow id="f_1_1_BUS" type="BUS" begin="3600.00" route="katip_s_u_turn" end="7200.00" vehsPerHour="2.00"/>
    <flow id="f_1_1_CAR" type="CAR" begin="3600.00" route="katip_s_u_turn" end="7200.00" vehsPerHour="553.00"/>
    <flow id="f_1_1_MOTORCYCLE" type="MOTORCYCLE" begin="3600.00" route="katip_s_u_turn" end="7200.00" vehsPerHour="149.00"/>
    <flow id="f_1_1_TAXI" type="TAXI" begin="3600.00" route="katip_s_u_turn" end="7200.00" vehsPerHour="10.00"/>
    <flow id="f_1_1_TRUCK" type="TRUCK" begin="3600.00" route="katip_s_u_turn" end="7200.00" vehsPerHour="5.00"/>
    <flow id="f_2_1_BUS" type="BUS" begin="3600.00" route="katip_s_aurora_e" end="7200.00" vehsPerHour="2.00"/>
    <flow id="f_2_1_CAR" type="CAR" begin="3600.00" route="katip_s_aurora_e" end="7200.00" vehsPerHour="132.00"/>
    <flow id="f_2_1_MOTORCYCLE" type="MOTORCYCLE" begin="3600.00" route="katip_s_aurora_e" end="7200.00" vehsPerHour="149.00"/>
    <flow id="f_2_1_TAXI" type="TAXI" begin="3600.00" route="katip_s_aurora_e" end="7200.00" vehsPerHour="10.00"/>
    <flow id="f_2_1_TRUCK" type="TRUCK" begin="3600.00" route="katip_s_aurora_e" end="7200.00" vehsPerHour="5.00"/>
    <flow id="f_3_1_CAR" type="CAR" begin="3600.00" route="aurora_e_katip_n" end="7200.00" vehsPerHour="48.00"/>
    <flow id="f_3_1_MOTORCYCLE" type="MOTORCYCLE" begin="3600.00" route="aurora_e_katip_n" end="7200.00" vehsPerHour="43.00"/>
    <flow id="f_3_1_TRAILER" type="TRAILER" begin="3600.00" route="aurora_e_katip_n" end="7200.00" vehsPerHour="2.00"/>
    <flow id="f_3_1_TRUCK" type="TRUCK" begin="3600.00" route="aurora_e_katip_n" end="7200.00" vehsPerHour="51.00"/>
    <flow id="f_4_1_BUS" type="BUS" begin="3600.00" route="aurora_e_aurora_w" end="7200.00" vehsPerHour="10.00"/>
    <flow id="f_4_1_CAR" type="CAR" begin="3600.00" route="aurora_e_aurora_w" end="7200.00" vehsPerHour="889.99"/>
    <flow id="f_4_1_MOTORCYCLE" type="MOTORCYCLE" begin="3600.00" route="aurora_e_aurora_w" end="7200.00" vehsPerHour="2385.69"/>
    <flow id="f_4_1_TAXI" type="TAXI" begin="3600.00" route="aurora_e_aurora_w" end="7200.00" vehsPerHour="801.96"/>
    <flow id="f_4_1_TRAILER" type="TRAILER" begin="3600.00" route="aurora_e_aurora_w" end="7200.00" vehsPerHour="1.00"/>
    <flow id="f_4_1_TRUCK" type="TRUCK" begin="3600.00" route="aurora_e_aurora_w" end="7200.00" vehsPerHour="15.00"/>
    <flow id="f_5_1_CAR" type="CAR" begin="3600.00" route="katip_n_aurora_w" end="7200.00" vehsPerHour="70.00"/>
    <flow id="f_5_1_MOTORCYCLE" type="MOTORCYCLE" begin="3600.00" route="katip_n_aurora_w" end="7200.00" vehsPerHour="141.00"/>
    <flow id="f_5_1_TAXI" type="TAXI" begin="3600.00" route="katip_n_aurora_w" end="7200.00" vehsPerHour="21.00"/>
    <flow id="f_6_1_CAR" type="CAR" begin="3600.00" route="katip_n_aurora_e" end="7200.00" vehsPerHour="710.06"/>
    <flow id="f_6_1_MOTORCYCLE" type="MOTORCYCLE" begin="3600.00" route="katip_n_aurora_e" end="7200.00" vehsPerHour="924.02"/>
    <flow id="f_6_1_TAXI" type="TAXI" begin="3600.00" route="katip_n_aurora_e" end="7200.00" vehsPerHour="39.00"/>
    <flow id="f_6_1_TRAILER" type="TRAILER" begin="3600.00" route="katip_n_aurora_e" end="7200.00" vehsPerHour="3.00"/>
    <flow id="f_6_1_TRUCK" type="TRUCK" begin="3600.00" route="katip_n_aurora_e" end="7200.00" vehsPerHour="76.00"/>
    <flow id="f_7_1_BUS" type="BUS" begin="3600.00" route="aurora_w_aurora_e" end="7200.00" vehsPerHour="8.00"/>
    <flow id="f_7_1_CAR" type="CAR" begin="3600.00" route="aurora_w_aurora_e" end="7200.00" vehsPerHour="551.98"/>
    <flow id="f_7_1_MOTORCYCLE" type="MOTORCYCLE" begin="3600.00" route="aurora_w_aurora_e" end="7200.00" vehsPerHour="630.03"/>
    <flow id="f_7_1_TAXI" type="TAXI" begin="3600.00" route="aurora_w_aurora_e" end="7200.00" vehsPerHour="42.00"/>
    <flow id="f_7_1_TRUCK" type="TRUCK" begin="3600.00" route="aurora_w_aurora_e" end="7200.00" vehsPerHour="20.00"/>
    <flow id="f_8_1_BUS" type="BUS" begin="3600.00" route="aurora_w_katip_s" end="7200.00" vehsPerHour="3.00"/>
    <flow id="f_8_1_CAR" type="CAR" begin="3600.00" route="aurora_w_katip_s" end="7200.00" vehsPerHour="107.00"/>
    <flow id="f_8_1_MOTORCYCLE" type="MOTORCYCLE" begin="3600.00" route="aurora_w_katip_s" end="7200.00" vehsPerHour="111.00"/>
    <flow id="f_8_1_TAXI" type="TAXI" begin="3600.00" route="aurora_w_katip_s" end="7200.00" vehsPerHour="12.00"/>
    <flow id="f_8_1_TRUCK" type="TRUCK" begin="3600.00" route="aurora_w_katip_s" end="7200.00" vehsPerHour="10.00"/>
    <flow id="f_9_1_BUS" type="BUS" begin="3600.00" route="aurora_e_katip_s" end="7200.00" vehsPerHour="1.00"/>
    <flow id="f_9_1_CAR" type="CAR" begin="3600.00" route="aurora_e_katip_s" end="7200.00" vehsPerHour="110.00"/>
    <flow id="f_9_1_MOTORCYCLE" type="MOTORCYCLE" begin="3600.00" route="aurora_e_katip_s" end="7200.00" vehsPerHour="135.00"/>
    <flow id="f_9_1_TAXI" type="TAXI" begin="3600.00" route="aurora_e_katip_s" end="7200.00" vehsPerHour="8.00"/>
    <flow id="f_9_1_TRAILER" type="TRAILER" begin="3600.00" route="aurora_e_katip_s" end="7200.00" vehsPerHour="11.00"/>
    <flow id="f_9_1_TRUCK" type="TRUCK" begin="3600.00" route="aurora_e_katip_s" end="7200.00" vehsPerHour="10.00"/>
    <flow id="f_0_2_BUS" type="BUS" begin="7200.00" route="katip_s_aurora_w" end="10800.00" vehsPerHour="11.00"/>
    <flow id="f_0_2_CAR" type="CAR" begin="7200.00" route="katip_s_aurora_w" end="10800.00" vehsPerHour="525.01"/>
    <flow id="f_0_2_MOTORCYCLE" type="MOTORCYCLE" begin="7200.00" route="katip_s_aurora_w" end="10800.00" vehsPerHour="341.01"/>
    <flow id="f_0_2_TAXI" type="TAXI" begin="7200.00" route="katip_s_aurora_w" end="10800.00" vehsPerHour="42.00"/>
    <flow id="f_0_2_TRUCK" type="TRUCK" begin="7200.00" route="katip_s_aurora_w" end="10800.00" vehsPerHour="10.00"/>
    <flow id="f_10_2_CAR" type="CAR" begin="7200.00" route="katip_n_u_turn" end="10800.00" vehsPerHour="78.00"/>
    <flow id="f_10_2_MOTORCYCLE" type="MOTORCYCLE" begin="7200.00" route="katip_n_u_turn" end="10800.00" vehsPerHour="33.00"/>
    <flow id="f_10_2_TAXI" type="TAXI" begin="7200.00" route="katip_n_u_turn" end="10800.00" vehsPerHour="5.00"/>
    <flow id="f_1_2_CAR" type="CAR" begin="7200.00" route="katip_s_u_turn" end="10800.00" vehsPerHour="319.01"/>
    <flow id="f_1_2_MOTORCYCLE" type="MOTORCYCLE" begin="7200.00" route="katip_s_u_turn" end="10800.00" vehsPerHour="99.00"/>
    <flow id="f_1_2_TAXI" type="TAXI" begin="7200.00" route="katip_s_u_turn" end="10800.00" vehsPerHour="9.00"/>
    <flow id="f_1_2_TRUCK" type="TRUCK" begin="7200.00" route="katip_s_u_turn" end="10800.00" vehsPerHour="3.00"/>
    <flow id="f_2_2_CAR" type="CAR" begin="7200.00" route="katip_s_aurora_e" end="10800.00" vehsPerHour="106.00"/>
    <flow id="f_2_2_MOTORCYCLE" type="MOTORCYCLE" begin="7200.00" route="katip_s_aurora_e" end="10800.00" vehsPerHour="99.00"/>
    <flow id="f_2_2_TAXI" type="TAXI" begin="7200.00" route="katip_s_aurora_e" end="10800.00" vehsPerHour="9.00"/>
    <flow id="f_2_2_TRUCK" type="TRUCK" begin="7200.00" route="katip_s_aurora_e" end="10800.00" vehsPerHour="3.00"/>
    <flow id="f_3_2_CAR" type="CAR" begin="7200.00" route="aurora_e_katip_n" end="10800.00" vehsPerHour="53.00"/>
    <flow id="f_3_2_MOTORCYCLE" type="MOTORCYCLE" begin="7200.00" route="aurora_e_katip_n" end="10800.00" vehsPerHour="47.00"/>
    <flow id="f_3_2_TAXI" type="TAXI" begin="7200.00" route="aurora_e_katip_n" end="10800.00" vehsPerHour="7.00"/>
    <flow id="f_3_2_TRAILER" type="TRAILER" begin="7200.00" route="aurora_e_katip_n" end="10800.00" vehsPerHour="6.00"/>
    <flow id="f_3_2_TRUCK" type="TRUCK" begin="7200.00" route="aurora_e_katip_n" end="10800.00" vehsPerHour="47.00"/>
    <flow id="f_4_2_BUS" type="BUS" begin="7200.00" route="aurora_e_aurora_w" end="10800.00" vehsPerHour="18.00"/>
    <flow id="f_4_2_CAR" type="CAR" begin="7200.00" route="aurora_e_aurora_w" end="10800.00" vehsPerHour="1646.84"/>
    <flow id="f_4_2_MOTORCYCLE" type="MOTORCYCLE" begin="7200.00" route="aurora_e_aurora_w" end="10800.00" vehsPerHour="3364.49"/>
    <flow id="f_4_2_TAXI" type="TAXI" begin="7200.00" route="aurora_e_aurora_w" end="10800.00" vehsPerHour="165.00"/>
    <flow id="f_4_2_TRUCK" type="TRUCK" begin="7200.00" route="aurora_e_aurora_w" end="10800.00" vehsPerHour="49.00"/>
    <flow id="f_5_2_CAR" type="CAR" begin="7200.00" route="katip_n_aurora_w" end="10800.00" vehsPerHour="78.00"/>
    <flow id="f_5_2_MOTORCYCLE" type="MOTORCYCLE" begin="7200.00" route="katip_n_aurora_w" end="10800.00" vehsPerHour="104.00"/>
    <flow id="f_5_2_TAXI" type="TAXI" begin="7200.00" route="katip_n_aurora_w" end="10800.00" vehsPerHour="20.00"/>
    <flow id="f_5_2_TRUCK" type="TRUCK" begin="7200.00" route="katip_n_aurora_w" end="10800.00" vehsPerHour="5.00"/>
    <flow id="f_6_2_CAR" type="CAR" begin="7200.00" route="katip_n_aurora_e" end="10800.00" vehsPerHour="642.05"/>
    <flow id="f_6_2_MOTORCYCLE" type="MOTORCYCLE" begin="7200.00" route="katip_n_aurora_e" end="10800.00" vehsPerHour="764.98"/>
    <flow id="f_6_2_TAXI" type="TAXI" begin="7200.00" route="katip_n_aurora_e" end="10800.00" vehsPerHour="37.00"/>
    <flow id="f_6_2_TRAILER" type="TRAILER" begin="7200.00" route="katip_n_aurora_e" end="10800.00" vehsPerHour="1.00"/>
    <flow id="f_6_2_TRUCK" type="TRUCK" begin="7200.00" route="katip_n_aurora_e" end="10800.00" vehsPerHour="79.00"/>
    <flow id="f_7_2_BUS" type="BUS" begin="7200.00" route="aurora_w_aurora_e" end="10800.00" vehsPerHour="8.00"/>
    <flow id="f_7_2_CAR" type="CAR" begin="7200.00" route="aurora_w_aurora_e" end="10800.00" vehsPerHour="434.00"/>
    <flow id="f_7_2_MOTORCYCLE" type="MOTORCYCLE" begin="7200.00" route="aurora_w_aurora_e" end="10800.00" vehsPerHour="689.00"/>
    <flow id="f_7_2_TAXI" type="TAXI" begin="7200.00" route="aurora_w_aurora_e" end="10800.00" vehsPerHour="55.00"/>
    <flow id="f_7_2_TRAILER" type="TRAILER" begin="7200.00" route="aurora_w_aurora_e" end="10800.00" vehsPerHour="2.00"/>
    <flow id="f_7_2_TRUCK" type="TRUCK" begin="7200.00" route="aurora_w_aurora_e" end="10800.00" vehsPerHour="22.00"/>
    <flow id="f_8_2_BUS" type="BUS" begin="7200.00" route="aurora_w_katip_s" end="10800.00" vehsPerHour="1.00"/>
    <flow id="f_8_2_CAR" type="CAR" begin="7200.00" route="aurora_w_katip_s" end="10800.00" vehsPerHour="115.00"/>
    <flow id="f_8_2_MOTORCYCLE" type="MOTORCYCLE" begin="7200.00" route="aurora_w_katip_s" end="10800.00" vehsPerHour="147.00"/>
    <flow id="f_8_2_TAXI" type="TAXI" begin="7200.00" route="aurora_w_katip_s" end="10800.00" vehsPerHour="13.00"/>
    <flow id="f_8_2_TRUCK" type="TRUCK" begin="7200.00" route="aurora_w_katip_s" end="10800.00" vehsPerHour="8.00"/>
    <flow id="f_9_2_CAR" type="CAR" begin="7200.00" route="aurora_e_katip_s" end="10800.00" vehsPerHour="98.00"/>
    <flow id="f_9_2_MOTORCYCLE" type="MOTORCYCLE" begin="7200.00" route="aurora_e_katip_s" end="10800.00" vehsPerHour="126.00"/>
    <flow id="f_9_2_TAXI" type="TAXI" begin="7200.00" route="aurora_e_katip_s" end="10800.00" vehsPerHour="7.00"/>
    <flow id="f_9_2_TRAILER" type="TRAILER" begin="7200.00" route="aurora_e_katip_s" end="10800.00" vehsPerHour="2.00"/>
    <flow id="f_9_2_TRUCK" type="TRUCK" begin="7200.00" route="aurora_e_katip_s" end="10800.00" vehsPerHour="7.00"/>
    <flow id="f_0_3_BUS" type="BUS" begin="10800.00" route="katip_s_aurora_w" end="14400.00" vehsPerHour="11.00"/>
    <flow id="f_0_3_CAR" type="CAR" begin="10800.00" route="katip_s_aurora_w" end="14400.00" vehsPerHour="478.02"/>
    <flow id="f_0_3_MOTORCYCLE" type="MOTORCYCLE" begin="10800.00" route="katip_s_aurora_w" end="14400.00" vehsPerHour="262.01"/>
    <flow id="f_0_3_TAXI" type="TAXI" begin="10800.00" route="katip_s_aurora_w" end="14400.00" vehsPerHour="39.00"/>
    <flow id="f_0_3_TRAILER" type="TRAILER" begin="10800.00" route="katip_s_aurora_w" end="14400.00" vehsPerHour="1.00"/>
    <flow id="f_0_3_TRUCK" type="TRUCK" begin="10800.00" route="katip_s_aurora_w" end="14400.00" vehsPerHour="19.00"/>
    <flow id="f_10_3_CAR" type="CAR" begin="10800.00" route="katip_n_u_turn" end="14400.00" vehsPerHour="98.00"/>
    <flow id="f_10_3_MOTORCYCLE" type="MOTORCYCLE" begin="10800.00" route="katip_n_u_turn" end="14400.00" vehsPerHour="32.00"/>
    <flow id="f_10_3_TAXI" type="TAXI" begin="10800.00" route="katip_n_u_turn" end="14400.00" vehsPerHour="1.00"/>
    <flow id="f_10_3_TRUCK" type="TRUCK" begin="10800.00" route="katip_n_u_turn" end="14400.00" vehsPerHour="4.00"/>
    <flow id="f_1_3_BUS" type="BUS" begin="10800.00" route="katip_s_u_turn" end="14400.00" vehsPerHour="2.00"/>
    <flow id="f_1_3_CAR" type="CAR" begin="10800.00" route="katip_s_u_turn" end="14400.00" vehsPerHour="288.00"/>
    <flow id="f_1_3_MOTORCYCLE" type="MOTORCYCLE" begin="10800.00" route="katip_s_u_turn" end="14400.00" vehsPerHour="139.00"/>
    <flow id="f_1_3_TAXI" type="TAXI" begin="10800.00" route="katip_s_u_turn" end="14400.00" vehsPerHour="34.00"/>
    <flow id="f_1_3_TRUCK" type="TRUCK" begin="10800.00" route="katip_s_u_turn" end="14400.00" vehsPerHour="2.00"/>
    <flow id="f_2_3_BUS" type="BUS" begin="10800.00" route="katip_s_aurora_e" end="14400.00" vehsPerHour="2.00"/>
    <flow id="f_2_3_CAR" type="CAR" begin="10800.00" route="katip_s_aurora_e" end="14400.00" vehsPerHour="133.00"/>
    <flow id="f_2_3_MOTORCYCLE" type="MOTORCYCLE" begin="10800.00" route="katip_s_aurora_e" end="14400.00" vehsPerHour="139.00"/>
    <flow id="f_2_3_TAXI" type="TAXI" begin="10800.00" route="katip_s_aurora_e" end="14400.00" vehsPerHour="34.00"/>
    <flow id="f_2_3_TRUCK" type="TRUCK" begin="10800.00" route="katip_s_aurora_e" end="14400.00" vehsPerHour="2.00"/>
    <flow id="f_3_3_CAR" type="CAR" begin="10800.00" route="aurora_e_katip_n" end="14400.00" vehsPerHour="54.00"/>
    <flow id="f_3_3_MOTORCYCLE" type="MOTORCYCLE" begin="10800.00" route="aurora_e_katip_n" end="14400.00" vehsPerHour="51.00"/>
    <flow id="f_3_3_TAXI" type="TAXI" begin="10800.00" route="aurora_e_katip_n" end="14400.00" vehsPerHour="6.00"/>
    <flow id="f_3_3_TRAILER" type="TRAILER" begin="10800.00" route="aurora_e_katip_n" end="14400.00" vehsPerHour="5.00"/>
    <flow id="f_3_3_TRUCK" type="TRUCK" begin="10800.00" route="aurora_e_katip_n" end="14400.00" vehsPerHour="60.00"/>
    <flow id="f_4_3_BUS" type="BUS" begin="10800.00" route="aurora_e_aurora_w" end="14400.00" vehsPerHour="10.00"/>
    <flow id="f_4_3_CAR" type="CAR" begin="10800.00" route="aurora_e_aurora_w" end="14400.00" vehsPerHour="1283.88"/>
    <flow id="f_4_3_MOTORCYCLE" type="MOTORCYCLE" begin="10800.00" route="aurora_e_aurora_w" end="14400.00" vehsPerHour="1348.82"/>
    <flow id="f_4_3_TAXI" type="TAXI" begin="10800.00" route="aurora_e_aurora_w" end="14400.00" vehsPerHour="81.00"/>
    <flow id="f_4_3_TRAILER" type="TRAILER" begin="10800.00" route="aurora_e_aurora_w" end="14400.00" vehsPerHour="1.00"/>
    <flow id="f_4_3_TRUCK" type="TRUCK" begin="10800.00" route="aurora_e_aurora_w" end="14400.00" vehsPerHour="34.00"/>
    <flow id="f_5_3_CAR" type="CAR" begin="10800.00" route="katip_n_aurora_w" end="14400.00" vehsPerHour="58.00"/>
    <flow id="f_5_3_MOTORCYCLE" type="MOTORCYCLE" begin="10800.00" route="katip_n_aurora_w" end="14400.00" vehsPerHour="113.00"/>
    <flow id="f_5_3_TAXI" type="TAXI" begin="10800.00" route="katip_n_aurora_w" end="14400.00" vehsPerHour="24.00"/>
    <flow id="f_5_3_TRUCK" type="TRUCK" begin="10800.00" route="katip_n_aurora_w" end="14400.00" vehsPerHour="4.00"/>
    <flow id="f_6_3_CAR" type="CAR" begin="10800.00" route="katip_n_aurora_e" end="14400.00" vehsPerHour="764.01"/>
    <flow id="f_6_3_MOTORCYCLE" type="MOTORCYCLE" begin="10800.00" route="katip_n_aurora_e" end="14400.00" vehsPerHour="781.93"/>
    <flow id="f_6_3_TAXI" type="TAXI" begin="10800.00" route="katip_n_aurora_e" end="14400.00" vehsPerHour="52.00"/>
    <flow id="f_6_3_TRAILER" type="TRAILER" begin="10800.00" route="katip_n_aurora_e" end="14400.00" vehsPerHour="5.00"/>
    <flow id="f_6_3_TRUCK" type="TRUCK" begin="10800.00" route="katip_n_aurora_e" end="14400.00" vehsPerHour="104.00"/>
    <flow id="f_7_3_BUS" type="BUS" begin="10800.00" route="aurora_w_aurora_e" end="14400.00" vehsPerHour="13.00"/>
    <flow id="f_7_3_CAR" type="CAR" begin="10800.00" route="aurora_w_aurora_e" end="14400.00" vehsPerHour="461.01"/>
    <flow id="f_7_3_MOTORCYCLE" type="MOTORCYCLE" begin="10800.00" route="aurora_w_aurora_e" end="14400.00" vehsPerHour="640.00"/>
    <flow id="f_7_3_TAXI" type="TAXI" begin="10800.00" route="aurora_w_aurora_e" end="14400.00" vehsPerHour="86.00"/>
    <flow id="f_7_3_TRUCK" type="TRUCK" begin="10800.00" route="aurora_w_aurora_e" end="14400.00" vehsPerHour="30.00"/>
    <flow id="f_8_3_CAR" type="CAR" begin="10800.00" route="aurora_w_katip_s" end="14400.00" vehsPerHour="110.00"/>
    <flow id="f_8_3_MOTORCYCLE" type="MOTORCYCLE" begin="10800.00" route="aurora_w_katip_s" end="14400.00" vehsPerHour="128.00"/>
    <flow id="f_8_3_TAXI" type="TAXI" begin="10800.00" route="aurora_w_katip_s" end="14400.00" vehsPerHour="12.00"/>
    <flow id="f_8_3_TRUCK" type="TRUCK" begin="10800.00" route="aurora_w_katip_s" end="14400.00" vehsPerHour="9.00"/>
    <flow id="f_9_3_BUS" type="BUS" begin="10800.00" route="aurora_e_katip_s" end="14400.00" vehsPerHour="1.00"/>
    <flow id="f_9_3_CAR" type="CAR" begin="10800.00" route="aurora_e_katip_s" end="14400.00" vehsPerHour="98.00"/>
    <flow id="f_9_3_MOTORCYCLE" type="MOTORCYCLE" begin="10800.00" route="aurora_e_katip_s" end="14400.00" vehsPerHour="76.00"/>
    <flow id="f_9_3_TAXI" type="TAXI" begin="10800.00" route="aurora_e_katip_s" end="14400.00" vehsPerHour="3.00"/>
    <flow id="f_9_3_TRAILER" type="TRAILER" begin="10800.00" route="aurora_e_katip_s" end="14400.00" vehsPerHour="1.00"/>
    <flow id="f_9_3_TRUCK" type="TRUCK" begin="10800.00" route="aurora_e_katip_s" end="14400.00" vehsPerHour="5.00"/>
    <flow id="f_0_4_BUS" type="BUS" begin="14400.00" route="katip_s_aurora_w" end="18000.00" vehsPerHour="9.00"/>
    <flow id="f_0_4_CAR" type="CAR" begin="14400.00" route="katip_s_aurora_w" end="18000.00" vehsPerHour="441.01"/>
    <flow id="f_0_4_MOTORCYCLE" type="MOTORCYCLE" begin="14400.00" route="katip_s_aurora_w" end="18000.00" vehsPerHour="281.01"/>
    <flow id="f_0_4_TAXI" type="TAXI" begin="14400.00" route="katip_s_aurora_w" end="18000.00" vehsPerHour="27.00"/>
    <flow id="f_0_4_TRUCK" type="TRUCK" begin="14400.00" route="katip_s_aurora_w" end="18000.00" vehsPerHour="21.00"/>
    <flow id="f_10_4_CAR" type="CAR" begin="14400.00" route="katip_n_u_turn" end="18000.00" vehsPerHour="112.00"/>
    <flow id="f_10_4_MOTORCYCLE" type="MOTORCYCLE" begin="14400.00" route="katip_n_u_turn" end="18000.00" vehsPerHour="31.00"/>
    <flow id="f_10_4_TAXI" type="TAXI" begin="14400.00" route="katip_n_u_turn" end="18000.00" vehsPerHour="3.00"/>
    <flow id="f_10_4_TRUCK" type="TRUCK" begin="14400.00" route="katip_n_u_turn" end="18000.00" vehsPerHour="1.00"/>
    <flow id="f_1_4_BUS" type="BUS" begin="14400.00" route="katip_s_u_turn" end="18000.00" vehsPerHour="1.00"/>
    <flow id="f_1_4_CAR" type="CAR" begin="14400.00" route="katip_s_u_turn" end="18000.00" vehsPerHour="290.00"/>
    <flow id="f_1_4_MOTORCYCLE" type="MOTORCYCLE" begin="14400.00" route="katip_s_u_turn" end="18000.00" vehsPerHour="106.00"/>
    <flow id="f_1_4_TAXI" type="TAXI" begin="14400.00" route="katip_s_u_turn" end="18000.00" vehsPerHour="13.00"/>
    <flow id="f_2_4_BUS" type="BUS" begin="14400.00" route="katip_s_aurora_e" end="18000.00" vehsPerHour="1.00"/>
    <flow id="f_2_4_CAR" type="CAR" begin="14400.00" route="katip_s_aurora_e" end="18000.00" vehsPerHour="88.00"/>
    <flow id="f_2_4_MOTORCYCLE" type="MOTORCYCLE" begin="14400.00" route="katip_s_aurora_e" end="18000.00" vehsPerHour="106.00"/>
    <flow id="f_2_4_TAXI" type="TAXI" begin="14400.00" route="katip_s_aurora_e" end="18000.00" vehsPerHour="13.00"/>
    <flow id="f_3_4_CAR" type="CAR" begin="14400.00" route="aurora_e_katip_n" end="18000.00" vehsPerHour="98.00"/>
    <flow id="f_3_4_MOTORCYCLE" type="MOTORCYCLE" begin="14400.00" route="aurora_e_katip_n" end="18000.00" vehsPerHour="52.00"/>
    <flow id="f_3_4_TAXI" type="TAXI" begin="14400.00" route="aurora_e_katip_n" end="18000.00" vehsPerHour="8.00"/>
    <flow id="f_3_4_TRAILER" type="TRAILER" begin="14400.00" route="aurora_e_katip_n" end="18000.00" vehsPerHour="18.00"/>
    <flow id="f_3_4_TRUCK" type="TRUCK" begin="14400.00" route="aurora_e_katip_n" end="18000.00" vehsPerHour="121.00"/>
    <flow id="f_4_4_BUS" type="BUS" begin="14400.00" route="aurora_e_aurora_w" end="18000.00" vehsPerHour="8.00"/>
    <flow id="f_4_4_CAR" type="CAR" begin="14400.00" route="aurora_e_aurora_w" end="18000.00" vehsPerHour="589.01"/>
    <flow id="f_4_4_MOTORCYCLE" type="MOTORCYCLE" begin="14400.00" route="aurora_e_aurora_w" end="18000.00" vehsPerHour="1264.04"/>