<?xml version="1.0" encoding="UTF-8"?>

<!-- generated on 2023-03-19 23:28:03 by Eclipse SUMO duarouter Version 1.15.0
-->

<configuration xmlns:xsi="http://www.w3.org/2001/XMLSchema-instance" xsi:noNamespaceSchemaLocation="http://sumo.dlr.de/xsd/duarouterConfiguration.xsd">

    <input>
        <net-file value="C:\Users\lendl\Documents\smart_traffic\sumo\19-3-lendl-ver.net.xml"/>
        <route-files value="../018/4-3-test-demand-vianetedit_018.rou.alt.xml"/>
        <weight-files value="../018/dump_900.xml"/>
    </input>

    <output>
        <output-file value="4-3-test-demand-vianetedit_019.rou.xml"/>
        <exit-times value="False"/>
    </output>

    <processing>
        <max-alternatives value="5"/>
        <with-taz value="False"/>
        <routing-algorithm value="dijkstra"/>
        <weights.expand value="true"/>
        <gawron.beta value="0.9"/>
        <gawron.a value="0.5"/>
        <keep-all-routes value="False"/>
        <logit.beta value="0.15"/>
        <logit.gamma value="1.0"/>
    </processing>

    <time>
        <begin value="0"/>
    </time>

    <report>
        <verbose value="False"/>
        <no-warnings value="False"/>
        <ignore-errors value="False"/>
        <no-step-log value="true"/>
    </report>

    <random_number>
        <random value="False"/>
    </random_number>

</configuration>
