<?xml version="1.0" encoding="UTF-8"?>

<!-- generated on 2023-03-26 15:23:31 by Eclipse SUMO netedit Version 1.15.0
<configuration xmlns:xsi="http://www.w3.org/2001/XMLSchema-instance" xsi:noNamespaceSchemaLocation="http://sumo.dlr.de/xsd/netconvertConfiguration.xsd">

    <input>
        <sumo-net-file value="C:\Users\lendl\Documents\smart_traffic\sumo\25-3-lendl-ver.net.xml"/>
    </input>

    <output>
        <output-file value="C:\Users\lendl\Documents\smart_traffic\sumo\25-3-lendl-ver.net.xml"/>
        <output.street-names value="true"/>
    </output>

    <processing>
        <geometry.min-radius.fix.railways value="false"/>
        <geometry.max-grade.fix value="false"/>
        <offset.disable-normalization value="true"/>
        <lefthand value="0"/>
    </processing>

    <junctions>
        <no-turnarounds value="true"/>
        <junctions.corner-detail value="5"/>
        <junctions.limit-turn-speed value="5.50"/>
        <rectangular-lane-cut value="0"/>
    </junctions>

    <pedestrian>
        <walkingareas value="0"/>
    </pedestrian>

</configuration>
-->

<net version="1.9" junctionCornerDetail="5" limitTurnSpeed="5.50" xmlns:xsi="http://www.w3.org/2001/XMLSchema-instance" xsi:noNamespaceSchemaLocation="http://sumo.dlr.de/xsd/net_file.xsd">

    <location netOffset="-292245.58,-1618114.08" convBoundary="-46.94,45.67,753.13,703.91" origBoundary="121.071130,14.628467,121.078283,14.634565" projParameter="+proj=utm +zone=51 +ellps=WGS84 +datum=WGS84 +units=m +no_defs"/>

    <type id="highway.bridleway" priority="1" numLanes="1" speed="2.78" allow="pedestrian" oneway="1" width="2.00"/>
    <type id="highway.bus_guideway" priority="1" numLanes="1" speed="27.78" allow="bus" oneway="1"/>
    <type id="highway.cycleway" priority="1" numLanes="1" speed="5.56" allow="bicycle" oneway="0" width="1.00"/>
    <type id="highway.footway" priority="1" numLanes="1" speed="2.78" allow="pedestrian" oneway="1" width="2.00"/>
    <type id="highway.ford" priority="1" numLanes="1" speed="2.78" allow="army" oneway="0"/>
    <type id="highway.living_street" priority="2" numLanes="1" speed="2.78" disallow="tram rail_urban rail rail_electric rail_fast ship" oneway="0"/>
    <type id="highway.motorway" priority="14" numLanes="2" speed="39.44" allow="private emergency authority army vip passenger hov taxi bus coach delivery truck trailer motorcycle evehicle custom1 custom2" oneway="1"/>
    <type id="highway.motorway_link" priority="9" numLanes="1" speed="22.22" allow="private emergency authority army vip passenger hov taxi bus coach delivery truck trailer motorcycle evehicle custom1 custom2" oneway="1"/>
    <type id="highway.path" priority="1" numLanes="1" speed="5.56" allow="pedestrian bicycle" oneway="0" width="2.00"/>
    <type id="highway.pedestrian" priority="1" numLanes="1" speed="2.78" allow="pedestrian" oneway="1" width="2.00"/>
    <type id="highway.primary" priority="12" numLanes="2" speed="27.78" disallow="tram rail_urban rail rail_electric rail_fast ship" oneway="0"/>
    <type id="highway.primary_link" priority="7" numLanes="1" speed="22.22" disallow="tram rail_urban rail rail_electric rail_fast ship" oneway="0"/>
    <type id="highway.raceway" priority="15" numLanes="2" speed="83.33" allow="vip" oneway="0"/>
    <type id="highway.residential" priority="3" numLanes="1" speed="13.89" disallow="tram rail_urban rail rail_electric rail_fast ship" oneway="0"/>
    <type id="highway.secondary" priority="11" numLanes="1" speed="27.78" disallow="tram rail_urban rail rail_electric rail_fast ship" oneway="0"/>
    <type id="highway.secondary_link" priority="6" numLanes="1" speed="22.22" disallow="tram rail_urban rail rail_electric rail_fast ship" oneway="0"/>
    <type id="highway.service" priority="1" numLanes="1" speed="5.56" allow="pedestrian delivery bicycle" oneway="0"/>
    <type id="highway.stairs" priority="1" numLanes="1" speed="1.39" allow="pedestrian" oneway="1" width="2.00"/>
    <type id="highway.step" priority="1" numLanes="1" speed="1.39" allow="pedestrian" oneway="1" width="2.00"/>
    <type id="highway.steps" priority="1" numLanes="1" speed="1.39" allow="pedestrian" oneway="1" width="2.00"/>
    <type id="highway.tertiary" priority="10" numLanes="1" speed="22.22" disallow="tram rail_urban rail rail_electric rail_fast ship" oneway="0"/>
    <type id="highway.tertiary_link" priority="5" numLanes="1" speed="22.22" disallow="tram rail_urban rail rail_electric rail_fast ship" oneway="0"/>
    <type id="highway.track" priority="1" numLanes="1" speed="5.56" allow="pedestrian motorcycle moped bicycle" oneway="0"/>
    <type id="highway.trunk" priority="13" numLanes="2" speed="27.78" disallow="pedestrian bicycle tram rail_urban rail rail_electric rail_fast ship" oneway="0"/>
    <type id="highway.trunk_link" priority="8" numLanes="1" speed="22.22" disallow="pedestrian bicycle tram rail_urban rail rail_electric rail_fast ship" oneway="0"/>
    <type id="highway.unclassified" priority="4" numLanes="1" speed="13.89" disallow="tram rail_urban rail rail_electric rail_fast ship" oneway="0"/>
    <type id="highway.unsurfaced" priority="1" numLanes="1" speed="8.33" disallow="tram rail_urban rail rail_electric rail_fast ship" oneway="0"/>
    <type id="railway.highspeed" priority="21" numLanes="1" speed="69.44" allow="rail_fast" oneway="1"/>
    <type id="railway.light_rail" priority="19" numLanes="1" speed="27.78" allow="rail_urban" oneway="1"/>
    <type id="railway.preserved" priority="16" numLanes="1" speed="27.78" allow="rail" oneway="1"/>
    <type id="railway.rail" priority="20" numLanes="1" speed="44.44" allow="rail" oneway="1"/>
    <type id="railway.subway" priority="18" numLanes="1" speed="27.78" allow="rail_urban" oneway="1"/>
    <type id="railway.tram" priority="17" numLanes="1" speed="13.89" allow="tram" oneway="1"/>

    <edge id=":1020313312_0" function="internal">
        <lane id=":1020313312_0_0" index="0" disallow="tram rail_urban rail rail_electric rail_fast ship" speed="16.67" length="8.27" shape="346.04,320.76 346.56,323.22 347.68,324.75 348.80,326.27 349.32,328.73"/>
        <lane id=":1020313312_0_1" index="1" disallow="tram rail_urban rail rail_electric rail_fast ship" speed="16.67" length="8.27" shape="346.04,320.76 346.12,328.76"/>
        <lane id=":1020313312_0_2" index="2" disallow="tram rail_urban rail rail_electric rail_fast ship" speed="16.67" length="8.27" shape="342.84,320.79 342.92,328.79"/>
    </edge>
    <edge id=":288063295_0" function="internal">
        <lane id=":288063295_0_0" index="0" disallow="tram rail_urban rail rail_electric rail_fast ship" speed="16.67" length="22.94" shape="259.22,309.70 265.50,312.43 270.36,313.31 275.21,313.22 281.51,313.05"/>
        <lane id=":288063295_0_1" index="1" disallow="tram rail_urban rail rail_electric rail_fast ship" speed="16.67" length="23.15" shape="259.22,309.70 265.48,312.95 270.17,314.93 274.85,315.93 281.06,316.25"/>
    </edge>
    <edge id=":288063295_2" function="internal">
        <lane id=":288063295_2_0" index="0" disallow="tram rail_urban rail rail_electric rail_fast ship" speed="16.67" length="23.22" shape="259.22,309.70 279.55,321.14"/>
        <lane id=":288063295_2_1" index="1" disallow="tram rail_urban rail rail_electric rail_fast ship" speed="16.67" length="23.22" shape="257.73,312.54 278.00,323.94"/>
        <lane id=":288063295_2_2" index="2" disallow="tram rail_urban rail rail_electric rail_fast ship" speed="16.67" length="23.22" shape="256.24,315.37 276.44,326.74"/>
        <lane id=":288063295_2_3" index="3" disallow="tram rail_urban rail rail_electric rail_fast ship" speed="16.67" length="23.22" shape="254.75,318.20 274.88,329.53"/>
    </edge>
    <edge id=":288063298_0" function="internal">
        <lane id=":288063298_0_0" index="0" disallow="tram rail_urban rail rail_electric rail_fast ship" speed="16.67" length="0.69" shape="299.11,304.41 299.19,304.34 299.24,304.30 299.29,304.24 299.35,304.17"/>
        <lane id=":288063298_0_1" index="1" disallow="tram rail_urban rail rail_electric rail_fast ship" speed="16.67" length="0.69" shape="301.14,306.89 301.37,306.69 301.53,306.55 301.67,306.39 301.86,306.16"/>
    </edge>
    <edge id=":288063299_0" function="internal">
        <lane id=":288063299_0_0" index="0" disallow="tram rail_urban rail rail_electric rail_fast ship" speed="16.67" length="15.41" shape="312.27,298.48 311.92,283.03"/>
        <lane id=":288063299_0_1" index="1" disallow="tram rail_urban rail rail_electric rail_fast ship" speed="16.67" length="15.41" shape="315.47,298.39 315.12,283.03"/>
    </edge>
    <edge id=":288063299_2" function="internal">
        <lane id=":288063299_2_0" index="0" disallow="tram rail_urban rail rail_electric rail_fast ship" speed="16.67" length="15.52" shape="305.71,295.98 308.17,292.33 310.14,289.85 311.44,287.20 311.92,283.03"/>
        <lane id=":288063299_2_1" index="1" disallow="tram rail_urban rail rail_electric rail_fast ship" speed="16.67" length="15.52" shape="308.50,297.55 311.19,293.47 313.28,290.67 314.64,287.69 315.12,283.03"/>
    </edge>
    <edge id=":6565591286_0" function="internal">
        <lane id=":6565591286_0_0" index="0" disallow="tram rail_urban rail rail_electric rail_fast ship" speed="16.67" length="0.29" shape="210.00,283.77 210.32,283.93"/>
        <lane id=":6565591286_0_1" index="1" disallow="tram rail_urban rail rail_electric rail_fast ship" speed="16.67" length="0.29" shape="208.55,286.62 208.82,286.76"/>
        <lane id=":6565591286_0_2" index="2" disallow="tram rail_urban rail rail_electric rail_fast ship" speed="16.67" length="0.29" shape="207.09,289.47 207.33,289.59"/>
        <lane id=":6565591286_0_3" index="3" disallow="tram rail_urban rail rail_electric rail_fast ship" speed="16.67" length="0.29" shape="205.64,292.32 205.84,292.42"/>
    </edge>
    <edge id=":8661083819_0" function="internal">
        <lane id=":8661083819_0_0" index="0" disallow="tram rail_urban rail rail_electric rail_fast ship" speed="16.67" length="8.21" shape="378.75,373.96 380.73,375.33 381.88,376.58 383.03,377.82 385.01,379.19"/>
        <lane id=":8661083819_0_1" index="1" disallow="tram rail_urban rail rail_electric rail_fast ship" speed="16.67" length="8.21" shape="377.22,376.77 379.45,377.70 381.12,377.98 382.79,378.26 385.01,379.19"/>
        <lane id=":8661083819_0_2" index="2" disallow="tram rail_urban rail rail_electric rail_fast ship" speed="16.67" length="8.21" shape="375.69,379.59 377.92,380.51 379.59,380.79 381.26,381.07 383.48,382.00"/>
        <lane id=":8661083819_0_3" index="3" disallow="tram rail_urban rail rail_electric rail_fast ship" speed="16.67" length="8.21" shape="374.16,382.40 376.39,383.32 378.06,383.60 379.73,383.89 381.96,384.81"/>
    </edge>
    <edge id=":9839969832_0" function="internal">
        <lane id=":9839969832_0_0" index="0" disallow="tram rail_urban rail rail_electric rail_fast ship" speed="16.67" length="8.17" shape="463.29,421.21 465.47,422.06 467.11,422.28 468.76,422.48 470.99,423.27"/>
        <lane id=":9839969832_0_1" index="1" disallow="tram rail_urban rail rail_electric rail_fast ship" speed="16.67" length="8.17" shape="461.81,424.05 464.02,424.92 465.68,425.14 467.35,425.35 469.60,426.15"/>
        <lane id=":9839969832_0_2" index="2" disallow="tram rail_urban rail rail_electric rail_fast ship" speed="16.67" length="8.17" shape="460.33,426.88 462.57,427.77 464.25,428.01 465.94,428.22 468.22,429.04"/>
        <lane id=":9839969832_0_3" index="3" disallow="tram rail_urban rail rail_electric rail_fast ship" speed="16.67" length="8.17" shape="460.33,426.88 462.36,428.22 463.56,429.45 464.77,430.65 466.84,431.92"/>
    </edge>
    <edge id=":9883633498_0" function="internal">
        <lane id=":9883633498_0_0" index="0" disallow="tram rail_urban rail rail_electric rail_fast ship" speed="9.57" length="3.77" shape="349.43,339.63 349.46,340.74 349.57,341.51 349.85,342.23 350.38,343.21"/>
    </edge>
    <edge id=":9883633498_1" function="internal">
        <lane id=":9883633498_1_0" index="0" disallow="tram rail_urban rail rail_electric rail_fast ship" speed="16.67" length="3.65" shape="346.23,339.66 346.24,340.82 346.22,341.61 346.15,342.39 345.99,343.54"/>
        <lane id=":9883633498_1_1" index="1" disallow="tram rail_urban rail rail_electric rail_fast ship" speed="16.67" length="3.65" shape="343.03,339.70 343.04,340.71 343.02,341.40 342.96,342.09 342.82,343.09"/>
    </edge>
    <edge id=":J0_0" function="internal">
        <lane id=":J0_0_0" index="0" disallow="tram rail_urban rail rail_electric rail_fast ship" speed="16.67" length="6.20" shape="318.29,438.22 318.04,432.02"/>
        <lane id=":J0_0_1" index="1" disallow="tram rail_urban rail rail_electric rail_fast ship" speed="16.67" length="6.20" shape="321.48,438.10 321.24,431.90"/>
    </edge>
    <edge id=":J0_2" function="internal">
        <lane id=":J0_2_0" index="0" disallow="all" speed="5.05" length="5.01" shape="324.47,434.88 323.10,434.74 322.11,434.19 321.49,433.25 321.24,431.90"/>
    </edge>
    <edge id=":J1_0" function="internal">
        <lane id=":J1_0_0" index="0" disallow="tram rail_urban rail rail_electric rail_fast ship" speed="16.67" length="6.18" shape="351.18,430.74 351.56,436.89"/>
        <lane id=":J1_0_1" index="1" disallow="tram rail_urban rail rail_electric rail_fast ship" speed="16.67" length="6.18" shape="347.98,430.92 348.37,437.09"/>
    </edge>
    <edge id=":J1_2" function="internal">
        <lane id=":J1_2_0" index="0" disallow="all" speed="5.02" length="5.02" shape="347.98,430.92 347.87,432.29 347.33,433.29 346.39,433.91 345.03,434.16"/>
    </edge>
    <edge id=":J2_0" function="internal">
        <lane id=":J2_0_0" index="0" disallow="tram rail_urban rail rail_electric rail_fast ship" speed="16.67" length="11.20" shape="319.95,473.38 319.34,462.20"/>
        <lane id=":J2_0_1" index="1" disallow="tram rail_urban rail rail_electric rail_fast ship" speed="16.67" length="11.20" shape="323.15,473.20 322.54,462.02"/>
    </edge>
    <edge id=":J2_2" function="internal">
        <lane id=":J2_2_0" index="0" disallow="tram rail_urban rail rail_electric rail_fast ship" speed="6.51" length="9.03" shape="323.15,473.20 323.36,470.74 324.31,468.93 326.00,467.79 328.43,467.31"/>
    </edge>
    <edge id=":J3_0" function="internal">
        <lane id=":J3_0_0" index="0" disallow="tram rail_urban rail rail_electric rail_fast ship" speed="16.67" length="11.13" shape="353.07,460.33 353.79,471.43"/>
        <lane id=":J3_0_1" index="1" disallow="tram rail_urban rail rail_electric rail_fast ship" speed="16.67" length="11.13" shape="349.88,460.53 350.60,471.64"/>
    </edge>
    <edge id=":J3_2" function="internal">
        <lane id=":J3_2_0" index="0" disallow="tram rail_urban rail rail_electric rail_fast ship" speed="6.52" length="9.00" shape="344.67,466.41 347.13,466.62 348.94,467.56 350.09,469.24 350.60,471.64"/>
    </edge>
    <edge id=":J4_0" function="internal">
        <lane id=":J4_0_0" index="0" disallow="tram rail_urban rail rail_electric rail_fast ship" speed="16.67" length="6.20" shape="311.93,270.77 311.93,264.56"/>
        <lane id=":J4_0_1" index="1" disallow="tram rail_urban rail rail_electric rail_fast ship" speed="16.67" length="6.20" shape="315.13,270.77 315.13,264.56"/>
    </edge>
    <edge id=":J4_2" function="internal">
        <lane id=":J4_2_0" index="0" disallow="all" speed="5.18" length="5.09" shape="315.13,270.77 315.33,269.44 315.93,268.47 316.93,267.84 318.33,267.57"/>
    </edge>
    <edge id=":J5_0" function="internal">
        <lane id=":J5_0_0" index="0" disallow="tram rail_urban rail rail_electric rail_fast ship" speed="16.67" length="6.20" shape="345.43,263.02 345.50,269.23"/>
        <lane id=":J5_0_1" index="1" disallow="tram rail_urban rail rail_electric rail_fast ship" speed="16.67" length="6.20" shape="342.23,263.06 342.30,269.26"/>
    </edge>
    <edge id=":J5_2" function="internal">
        <lane id=":J5_2_0" index="0" disallow="all" speed="4.99" length="5.06" shape="339.09,266.28 340.48,266.39 341.48,266.92 342.08,267.88 342.30,269.26"/>
    </edge>
    <edge id=":J6_0" function="internal">
        <lane id=":J6_0_0" index="0" disallow="tram rail_urban rail rail_electric rail_fast ship" speed="16.67" length="11.20" shape="311.93,257.02 311.93,245.82"/>
        <lane id=":J6_0_1" index="1" disallow="tram rail_urban rail rail_electric rail_fast ship" speed="16.67" length="11.20" shape="315.13,257.02 315.13,245.82"/>
    </edge>
    <edge id=":J6_2" function="internal">
        <lane id=":J6_2_0" index="0" disallow="tram rail_urban rail rail_electric rail_fast ship" speed="6.41" length="9.04" shape="320.80,251.23 318.32,250.99 316.55,250.01 315.48,248.29 315.13,245.82"/>
    </edge>
    <edge id=":J7_0" function="internal">
        <lane id=":J7_0_0" index="0" disallow="tram rail_urban rail rail_electric rail_fast ship" speed="16.67" length="10.82" shape="345.27,244.87 345.35,255.68"/>
        <lane id=":J7_0_1" index="1" disallow="tram rail_urban rail rail_electric rail_fast ship" speed="16.67" length="10.82" shape="342.07,244.87 342.16,255.71"/>
    </edge>
    <edge id=":J7_2" function="internal">
        <lane id=":J7_2_0" index="0" disallow="tram rail_urban rail rail_electric rail_fast ship" speed="6.55" length="8.83" shape="342.07,244.87 341.74,247.23 340.71,248.95 339.01,250.04 336.62,250.48"/>
    </edge>
    <edge id=":cluster9883633497_cluster_25353129_33471551_cluster_26272655_288063291_29500569_5064338396_#2more_0" function="internal">
        <lane id=":cluster9883633497_cluster_25353129_33471551_cluster_26272655_288063291_29500569_5064338396_#2more_0_0" index="0" disallow="tram rail_urban rail rail_electric rail_fast ship" speed="16.67" length="50.53" shape="316.60,395.12 314.51,383.33 309.19,372.82 300.66,363.58 288.90,355.62"/>
    </edge>
    <edge id=":cluster9883633497_cluster_25353129_33471551_cluster_26272655_288063291_29500569_5064338396_#2more_1" function="internal">
        <lane id=":cluster9883633497_cluster_25353129_33471551_cluster_26272655_288063291_29500569_5064338396_#2more_1_0" index="0" disallow="tram rail_urban rail rail_electric rail_fast ship" speed="14.22" length="66.37" shape="316.60,395.12 319.90,377.57 330.15,368.08 345.36,366.58 363.53,372.98"/>
        <lane id=":cluster9883633497_cluster_25353129_33471551_cluster_26272655_288063291_29500569_5064338396_#2more_1_1" index="1" disallow="tram rail_urban rail rail_electric rail_fast ship" speed="13.45" length="59.19" shape="319.80,394.96 322.78,379.39 332.00,371.11 345.64,369.94 361.89,375.73"/>
    </edge>
    <edge id=":cluster9883633497_cluster_25353129_33471551_cluster_26272655_288063291_29500569_5064338396_#2more_3" function="internal">
        <lane id=":cluster9883633497_cluster_25353129_33471551_cluster_26272655_288063291_29500569_5064338396_#2more_3_0" index="0" disallow="tram rail_urban rail rail_electric rail_fast ship" speed="5.47" length="8.47" shape="353.76,389.34 351.58,388.65 350.07,389.12 349.24,390.74 349.09,393.51"/>
    </edge>
    <edge id=":cluster9883633497_cluster_25353129_33471551_cluster_26272655_288063291_29500569_5064338396_#2more_4" function="internal">
        <lane id=":cluster9883633497_cluster_25353129_33471551_cluster_26272655_288063291_29500569_5064338396_#2more_4_0" index="0" disallow="tram rail_urban rail rail_electric rail_fast ship" speed="16.67" length="73.23" shape="353.76,389.34 288.90,355.62"/>
        <lane id=":cluster9883633497_cluster_25353129_33471551_cluster_26272655_288063291_29500569_5064338396_#2more_4_1" index="1" disallow="tram rail_urban rail rail_electric rail_fast ship" speed="16.67" length="73.23" shape="355.41,386.58 290.43,352.81"/>
        <lane id=":cluster9883633497_cluster_25353129_33471551_cluster_26272655_288063291_29500569_5064338396_#2more_4_2" index="2" disallow="tram rail_urban rail rail_electric rail_fast ship" speed="16.67" length="73.23" shape="357.05,383.83 291.97,350.01"/>
    </edge>
    <edge id=":cluster9883633497_cluster_25353129_33471551_cluster_26272655_288063291_29500569_5064338396_#2more_7" function="internal">
        <lane id=":cluster9883633497_cluster_25353129_33471551_cluster_26272655_288063291_29500569_5064338396_#2more_7_0" index="0" disallow="tram rail_urban rail rail_electric rail_fast ship" speed="16.67" length="68.95" shape="358.70,381.07 339.06,369.71 324.93,357.94 316.31,345.77 313.21,333.19"/>
        <lane id=":cluster9883633497_cluster_25353129_33471551_cluster_26272655_288063291_29500569_5064338396_#2more_7_1" index="1" disallow="tram rail_urban rail rail_electric rail_fast ship" speed="16.67" length="66.97" shape="358.70,381.07 340.47,370.31 327.35,358.73 319.33,346.33 316.41,333.12"/>
    </edge>
    <edge id=":cluster9883633497_cluster_25353129_33471551_cluster_26272655_288063291_29500569_5064338396_#2more_9" function="internal">
        <lane id=":cluster9883633497_cluster_25353129_33471551_cluster_26272655_288063291_29500569_5064338396_#2more_9_0" index="0" disallow="tram rail_urban rail rail_electric rail_fast ship" speed="12.09" length="7.77" shape="361.14,362.45 362.34,364.38 363.42,365.53 364.79,366.39 366.82,367.48"/>
    </edge>
    <edge id=":cluster9883633497_cluster_25353129_33471551_cluster_26272655_288063291_29500569_5064338396_#2more_10" function="internal">
        <lane id=":cluster9883633497_cluster_25353129_33471551_cluster_26272655_288063291_29500569_5064338396_#2more_10_0" index="0" disallow="tram rail_urban rail rail_electric rail_fast ship" speed="14.55" length="62.88" shape="345.04,350.24 339.06,361.60 327.02,363.79 310.73,359.15 291.97,350.01"/>
        <lane id=":cluster9883633497_cluster_25353129_33471551_cluster_26272655_288063291_29500569_5064338396_#2more_10_1" index="1" disallow="tram rail_urban rail rail_electric rail_fast ship" speed="13.89" length="57.18" shape="342.08,348.36 336.64,358.30 325.63,360.02 310.69,355.62 293.51,347.20"/>
    </edge>
    <edge id=":cluster9883633497_cluster_25353129_33471551_cluster_26272655_288063291_29500569_5064338396_#2more_12" function="internal">
        <lane id=":cluster9883633497_cluster_25353129_33471551_cluster_26272655_288063291_29500569_5064338396_#2more_12_0" index="0" disallow="tram rail_urban rail rail_electric rail_fast ship" speed="16.67" length="73.88" shape="301.17,333.19 366.82,367.48"/>
        <lane id=":cluster9883633497_cluster_25353129_33471551_cluster_26272655_288063291_29500569_5064338396_#2more_12_1" index="1" disallow="tram rail_urban rail rail_electric rail_fast ship" speed="16.67" length="73.88" shape="299.64,336.00 365.18,370.23"/>
        <lane id=":cluster9883633497_cluster_25353129_33471551_cluster_26272655_288063291_29500569_5064338396_#2more_12_2" index="2" disallow="tram rail_urban rail rail_electric rail_fast ship" speed="16.67" length="73.88" shape="298.10,338.80 363.53,372.98"/>
        <lane id=":cluster9883633497_cluster_25353129_33471551_cluster_26272655_288063291_29500569_5064338396_#2more_12_3" index="3" disallow="tram rail_urban rail rail_electric rail_fast ship" speed="16.67" length="73.88" shape="296.56,341.61 361.89,375.73"/>
    </edge>

    <edge id="1076383725" from="78038857" to="J2" name="Katipunan Avenue" priority="12" type="highway.primary" spreadType="center" shape="332.42,703.91 321.83,478.46 321.33,469.30">
        <lane id="1076383725_0" index="0" disallow="tram rail_urban rail rail_electric rail_fast ship" speed="16.67" length="230.88" shape="330.82,703.99 320.23,478.54 319.95,473.38">
            <param key="origId" value="1076383725"/>
        </lane>
        <lane id="1076383725_1" index="1" disallow="tram rail_urban rail rail_electric rail_fast ship" speed="16.67" length="230.88" shape="334.02,703.83 323.43,478.38 323.15,473.20">
            <param key="origId" value="1076383725"/>
        </lane>
        <param key="origTo" value="5064338396"/>
        <param key="ref" value="11"/>
    </edge>
    <edge id="1076383725.44" from="J2" to="J0" name="Katipunan Avenue" priority="12" type="highway.primary" spreadType="center" shape="321.33,469.30 320.54,454.81 319.70,433.45">
        <lane id="1076383725.44_0" index="0" disallow="tram rail_urban rail rail_electric rail_fast ship" speed="16.67" length="23.98" shape="319.34,462.20 318.94,454.88 318.29,438.22">
            <param key="origId" value="1076383725"/>
        </lane>
        <lane id="1076383725.44_1" index="1" disallow="tram rail_urban rail rail_electric rail_fast ship" speed="16.67" length="23.98" shape="322.54,462.02 322.14,454.74 321.48,438.10">
            <param key="origId" value="1076383725"/>
        </lane>
        <param key="origTo" value="5064338396"/>
        <param key="ref" value="11"/>
    </edge>
    <edge id="1076383725.80" from="J0" to="cluster9883633497_cluster_25353129_33471551_cluster_26272655_288063291_29500569_5064338396_#2more" name="Katipunan Avenue" priority="12" type="highway.primary" spreadType="center" shape="319.70,433.45 318.95,414.21">
        <lane id="1076383725.80_0" index="0" disallow="tram rail_urban rail rail_electric rail_fast ship" speed="16.67" length="36.95" shape="318.04,432.02 316.60,395.12">
            <param key="origId" value="1076383725"/>
        </lane>
        <lane id="1076383725.80_1" index="1" disallow="tram rail_urban rail rail_electric rail_fast ship" speed="16.67" length="36.95" shape="321.24,431.90 319.80,394.96">
            <param key="origId" value="1076383725"/>
        </lane>
        <param key="origTo" value="5064338396"/>
        <param key="ref" value="11"/>
    </edge>
    <edge id="1078018158" from="9839969832" to="25353133" name="Marcos Highway" priority="12" type="highway.primary" spreadType="center" shape="465.33,425.88 490.35,437.86 531.06,455.98 592.93,471.67 664.26,486.80 753.13,486.88">
        <lane id="1078018158_0" index="0" disallow="tram rail_urban rail rail_electric rail_fast ship" speed="16.67" length="293.94" shape="470.99,423.27 492.36,433.50 532.64,451.43 594.02,466.99 664.77,482.00 753.13,482.08">
            <param key="origId" value="1078018158"/>
        </lane>
        <lane id="1078018158_1" index="1" disallow="tram rail_urban rail rail_electric rail_fast ship" speed="16.67" length="293.94" shape="469.60,426.15 491.02,436.41 531.59,454.46 593.29,470.11 664.43,485.20 753.13,485.28">
            <param key="origId" value="1078018158"/>
        </lane>
        <lane id="1078018158_2" index="2" disallow="tram rail_urban rail rail_electric rail_fast ship" speed="16.67" length="293.94" shape="468.22,429.04 489.68,439.31 530.53,457.50 592.57,473.23 664.09,488.40 753.13,488.48">
            <param key="origId" value="1078018158"/>
        </lane>
        <lane id="1078018158_3" index="3" disallow="tram rail_urban rail rail_electric rail_fast ship" speed="16.67" length="293.94" shape="466.84,431.92 488.34,442.22 529.48,460.53 591.84,476.35 663.75,491.60 753.13,491.68">
            <param key="origId" value="1078018158"/>
        </lane>
        <param key="ref" value="59"/>
    </edge>
    <edge id="1078018160" from="cluster9883633497_cluster_25353129_33471551_cluster_26272655_288063291_29500569_5064338396_#2more" to="8661083819" name="Marcos Highway" priority="12" type="highway.primary" spreadType="center" shape="361.74,370.18 379.97,380.09">
        <lane id="1078018160_0" index="0" disallow="tram rail_urban rail rail_electric rail_fast ship" speed="16.67" length="13.77" shape="366.82,367.48 378.75,373.96">
            <param key="origId" value="1078018160"/>
        </lane>
        <lane id="1078018160_1" index="1" disallow="tram rail_urban rail rail_electric rail_fast ship" speed="16.67" length="13.77" shape="365.18,370.23 377.22,376.77">
            <param key="origId" value="1078018160"/>
        </lane>
        <lane id="1078018160_2" index="2" disallow="tram rail_urban rail rail_electric rail_fast ship" speed="16.67" length="13.77" shape="363.53,372.98 375.69,379.59">
            <param key="origId" value="1078018160"/>
        </lane>
        <lane id="1078018160_3" index="3" disallow="tram rail_urban rail rail_electric rail_fast ship" speed="16.67" length="13.77" shape="361.89,375.73 374.16,382.40">
            <param key="origId" value="1078018160"/>
        </lane>
        <param key="ref" value="59"/>
    </edge>
    <edge id="1078018163" from="9883633498" to="cluster9883633497_cluster_25353129_33471551_cluster_26272655_288063291_29500569_5064338396_#2more" name="Katipunan Avenue" priority="12" type="highway.primary" spreadType="center">
        <lane id="1078018163_0" index="0" disallow="tram rail_urban rail rail_electric rail_fast ship" speed="16.67" length="6.05" shape="345.99,343.54 345.04,350.24">
            <param key="origId" value="1078018163"/>
        </lane>
        <lane id="1078018163_1" index="1" disallow="tram rail_urban rail rail_electric rail_fast ship" speed="16.67" length="6.05" shape="342.82,343.09 342.08,348.36">
            <param key="origId" value="1078018163"/>
        </lane>
        <param key="origTo" value="25353129"/>
        <param key="ref" value="11"/>
    </edge>
    <edge id="1078018164" from="9883633498" to="cluster9883633497_cluster_25353129_33471551_cluster_26272655_288063291_29500569_5064338396_#2more" priority="7" type="highway.primary_link" spreadType="center" shape="349.45,341.54 362.92,365.63 361.74,370.18">
        <lane id="1078018164_0" index="0" disallow="tram rail_urban rail rail_electric rail_fast ship" speed="22.22" length="22.05" shape="350.38,343.21 361.14,362.45">
            <param key="origId" value="1078018164"/>
        </lane>
    </edge>
    <edge id="26296778#0" from="cluster9883633497_cluster_25353129_33471551_cluster_26272655_288063291_29500569_5064338396_#2more" to="J1" name="Katipunan Avenue" priority="12" type="highway.primary" spreadType="center" shape="346.75,380.48 349.67,432.39">
        <lane id="26296778#0_0" index="0" disallow="tram rail_urban rail rail_electric rail_fast ship" speed="16.67" length="37.29" shape="349.09,393.51 351.18,430.74">